version 2
run ExamTaskNetwork_no_CCTV-51-20160820-17:47:16-28357
attr configname ExamTaskNetwork_no_CCTV
attr datetime 20160820-17:47:16
attr experiment ExamTaskNetwork_no_CCTV
attr inifile omnetpp.ini
attr iterationvars "$simtime=1000, $0=15"
attr iterationvars2 "$simtime=1000, $0=15, $repetition=6"
attr measurement "$simtime=1000, $0=15"
attr network ExamTaskNetwork_no_CCTV
attr processid 28357
attr repetition 6
attr replication #6
attr resultdir results
attr runnumber 51
attr seedset 51
attr simtime 1000

scalar . 	simtime 	1000
scalar ExamTaskNetwork_no_CCTV.ConferenceLaptop.networkLayer.arp 	initiatedARPResolution:count 	9
attr title  "ARP initiated resolutions, count"
scalar ExamTaskNetwork_no_CCTV.ConferenceLaptop.networkLayer.arp 	sentReply:count 	8
attr title  "ARP replies sent, count"
scalar ExamTaskNetwork_no_CCTV.ConferenceLaptop.networkLayer.arp 	sentReq:count 	9
attr title  "ARP request sent, count"
scalar ExamTaskNetwork_no_CCTV.ConferenceLaptop.networkLayer.arp 	failedARPResolution:count 	0
attr title  "ARP failed resolutions, count"
scalar ExamTaskNetwork_no_CCTV.ConferenceLaptop.networkLayer.arp 	completedARPResolution:count 	49
attr title  "ARP completed resolutions, count"
scalar ExamTaskNetwork_no_CCTV.ConferenceLaptop.lo0.lo 	rcvdPkFromHL:count 	0
attr interpolationmode  none
attr source  packetReceivedFromUpper
attr title  "packets received from higher layer, count"
scalar ExamTaskNetwork_no_CCTV.ConferenceLaptop.lo0.lo 	rcvdPkFromHL:sum(packetBytes) 	0
attr interpolationmode  none
attr source  packetReceivedFromUpper
attr title  "packets received from higher layer, sum(packetBytes)"
scalar ExamTaskNetwork_no_CCTV.ConferenceLaptop.lo0.lo 	passedUpPk:count 	0
attr interpolationmode  none
attr source  packetSentToUpper
attr title  "packets passed to higher layer, count"
scalar ExamTaskNetwork_no_CCTV.ConferenceLaptop.lo0.lo 	passedUpPk:sum(packetBytes) 	0
attr interpolationmode  none
attr source  packetSentToUpper
attr title  "packets passed to higher layer, sum(packetBytes)"
scalar ExamTaskNetwork_no_CCTV.ConferenceLaptop.lo0.lo 	droppedPkBitError:count 	0
attr interpolationmode  none
attr source  dropPkBitError
attr title  "packets dropped/bit error, count"
scalar ExamTaskNetwork_no_CCTV.ConferenceLaptop.lo0.lo 	droppedPkBitError:sum(packetBytes) 	0
attr interpolationmode  none
attr source  dropPkBitError
attr title  "packets dropped/bit error, sum(packetBytes)"
scalar ExamTaskNetwork_no_CCTV.ConferenceLaptop.wlan[0].agent 	dropConfirm:count 	0
attr title  "dropped confirms, count"
scalar ExamTaskNetwork_no_CCTV.ConferenceLaptop.wlan[0].agent 	acceptConfirm:count 	54
attr title  "accepted confirms, count"
scalar ExamTaskNetwork_no_CCTV.ConferenceLaptop.wlan[0].agent 	sentRequest:count 	54
attr title  "sent requests, count"
scalar ExamTaskNetwork_no_CCTV.ConferenceLaptop.wlan[0].mgmt 	dropPkByQueue:count 	0
attr interpolationmode  none
attr source  dropPkByQueue
attr title  "packets dropped by queue, count"
scalar ExamTaskNetwork_no_CCTV.ConferenceLaptop.wlan[0].mgmt 	dropPkByQueue:sum(packetBytes) 	0
attr interpolationmode  none
attr source  dropPkByQueue
attr title  "packets dropped by queue, sum(packetBytes)"
scalar ExamTaskNetwork_no_CCTV.ConferenceLaptop.wlan[0].mgmt 	dataQueueLen:max 	4
attr interpolationmode  sample-hold
attr title  "data queue length, max"
scalar ExamTaskNetwork_no_CCTV.ConferenceLaptop.wlan[0].mgmt 	dataQueueLen:timeavg 	0.0014214197393842
attr interpolationmode  sample-hold
attr title  "data queue length, timeavg"
scalar ExamTaskNetwork_no_CCTV.ConferenceLaptop.wlan[0].mac 	"number of received packets" 	24629
scalar ExamTaskNetwork_no_CCTV.ConferenceLaptop.wlan[0].mac 	"number of collisions" 	46208
scalar ExamTaskNetwork_no_CCTV.ConferenceLaptop.wlan[0].mac 	"number of internal collisions" 	0
scalar ExamTaskNetwork_no_CCTV.ConferenceLaptop.wlan[0].mac 	"number of retry for AC 0" 	8358
scalar ExamTaskNetwork_no_CCTV.ConferenceLaptop.wlan[0].mac 	"sent and received bits" 	291420688
scalar ExamTaskNetwork_no_CCTV.ConferenceLaptop.wlan[0].mac 	"sent packet within AC 0" 	24849
scalar ExamTaskNetwork_no_CCTV.ConferenceLaptop.wlan[0].mac 	"sent in TXOP " 	0
scalar ExamTaskNetwork_no_CCTV.ConferenceLaptop.wlan[0].mac 	"sentWithoutRetry AC 0" 	18813
scalar ExamTaskNetwork_no_CCTV.ConferenceLaptop.wlan[0].mac 	"numGivenUp AC 0" 	5
scalar ExamTaskNetwork_no_CCTV.ConferenceLaptop.wlan[0].mac 	"numDropped AC 0" 	0
scalar ExamTaskNetwork_no_CCTV.ConferenceLaptop.wlan[0].mac 	rcvdPkFromHL:count 	24872
attr interpolationmode  none
attr source  packetReceivedFromUpper
attr title  "packets received from higher layer, count"
scalar ExamTaskNetwork_no_CCTV.ConferenceLaptop.wlan[0].mac 	rcvdPkFromHL:sum(packetBytes) 	36434936
attr interpolationmode  none
attr source  packetReceivedFromUpper
attr title  "packets received from higher layer, sum(packetBytes)"
scalar ExamTaskNetwork_no_CCTV.ConferenceLaptop.wlan[0].mac 	passedUpPk:count 	33935
attr interpolationmode  none
attr source  packetSentToUpper
attr title  "packets passed to higher layer, count"
scalar ExamTaskNetwork_no_CCTV.ConferenceLaptop.wlan[0].mac 	passedUpPk:sum(packetBytes) 	36835082
attr interpolationmode  none
attr source  packetSentToUpper
attr title  "packets passed to higher layer, sum(packetBytes)"
scalar ExamTaskNetwork_no_CCTV.ConferenceLaptop.wlan[0].mac 	rcvdPkFromLL:count 	3426314
attr interpolationmode  none
attr source  packetReceivedFromLower
attr title  "packets received from lower layer, count"
scalar ExamTaskNetwork_no_CCTV.ConferenceLaptop.wlan[0].mac 	rcvdPkFromLL:sum(packetBytes) 	1324122208
attr interpolationmode  none
attr source  packetReceivedFromLower
attr title  "packets received from lower layer, sum(packetBytes)"
scalar ExamTaskNetwork_no_CCTV.ConferenceLaptop.wlan[0].mac 	sentDownPk:count 	57859
attr interpolationmode  none
attr source  packetSentToLower
attr title  "packets sent to lower layer, count"
scalar ExamTaskNetwork_no_CCTV.ConferenceLaptop.wlan[0].mac 	sentDownPk:sum(packetBytes) 	49001402
attr interpolationmode  none
attr source  packetSentToLower
attr title  "packets sent to lower layer, sum(packetBytes)"
scalar ExamTaskNetwork_no_CCTV.ConferenceLaptop.wlan[0].radio 	lossRate:min 	0
attr interpolationmode  backward-sample-hold
attr title  "packet loss rate, min"
scalar ExamTaskNetwork_no_CCTV.ConferenceLaptop.wlan[0].radio 	lossRate:max 	0.16
attr interpolationmode  backward-sample-hold
attr title  "packet loss rate, max"
scalar ExamTaskNetwork_no_CCTV.ConferenceLaptop.wlan[0].radio 	lossRate:timeavg 	0.012662269746444
attr interpolationmode  backward-sample-hold
attr title  "packet loss rate, timeavg"
statistic ExamTaskNetwork_no_CCTV.ConferenceLaptop.wlan[0].radio 	channelNo:histogram
field count 1
field mean 0
field stddev -nan
field sum 0
field sqrsum 0
field min 0
field max 0
attr interpolationmode  sample-hold
attr title  "channel no, histogram"
bin	-INF	0
bin	-0.5	0
bin	-0.46666666666667	0
bin	-0.43333333333333	0
bin	-0.4	0
bin	-0.36666666666667	0
bin	-0.33333333333333	0
bin	-0.3	0
bin	-0.26666666666667	0
bin	-0.23333333333333	0
bin	-0.2	0
bin	-0.16666666666667	0
bin	-0.13333333333333	0
bin	-0.1	0
bin	-0.066666666666667	0
bin	-0.033333333333333	0
bin	0	1
bin	0.033333333333333	0
bin	0.066666666666667	0
bin	0.1	0
bin	0.13333333333333	0
bin	0.16666666666667	0
bin	0.2	0
bin	0.23333333333333	0
bin	0.26666666666667	0
bin	0.3	0
bin	0.33333333333333	0
bin	0.36666666666667	0
bin	0.4	0
bin	0.43333333333333	0
bin	0.46666666666667	0
bin	0.5	0
scalar ExamTaskNetwork_no_CCTV.ConferenceLaptop.wlan[0].radio 	radioState:count 	6977406
attr interpolationmode  sample-hold
attr title  "radio state (enum), count"
scalar ExamTaskNetwork_no_CCTV.ConferenceLaptop.wlan[0].radio 	bitrate:min 	54000000
attr interpolationmode  sample-hold
attr title  "tx bitrate, min"
attr unit  bps
scalar ExamTaskNetwork_no_CCTV.ConferenceLaptop.wlan[0].radio 	bitrate:max 	54000000
attr interpolationmode  sample-hold
attr title  "tx bitrate, max"
attr unit  bps
scalar ExamTaskNetwork_no_CCTV.ConferenceLaptop.wlan[0].radio 	bitrate:timeavg 	54000000
attr interpolationmode  sample-hold
attr title  "tx bitrate, timeavg"
attr unit  bps
scalar ExamTaskNetwork_no_CCTV.ConferenceLaptop.udpApp[0] 	"packets sent" 	24963
scalar ExamTaskNetwork_no_CCTV.ConferenceLaptop.udpApp[0] 	"packets received" 	24379
scalar ExamTaskNetwork_no_CCTV.ConferenceLaptop.udpApp[0] 	lateRatio 	4.101890954189e-05
scalar ExamTaskNetwork_no_CCTV.ConferenceLaptop.udpApp[0] 	"discarded packets" 	1
statistic ExamTaskNetwork_no_CCTV.ConferenceLaptop.udpApp[0] 	endToEndDelay:stats
field count 24379
field mean 0.036750300923389
field stddev 0.017541424762933
field sum 895.93558621129
field sqrsum 40.42705158463
field min 0.016442755456
field max 0.101021004415
attr source  VoIPPacketDelay
attr title  "VoIP Packet End-to-End Delay, stats"
attr unit  s
scalar ExamTaskNetwork_no_CCTV.ConferenceLaptop.udpApp[0] 	sentPk:count 	24963
attr interpolationmode  none
attr source  sentPk
attr title  "packets sent, count"
scalar ExamTaskNetwork_no_CCTV.ConferenceLaptop.udpApp[0] 	sentPk:sum(packetBytes) 	34948200
attr interpolationmode  none
attr source  sentPk
attr title  "packets sent, sum(packetBytes)"
scalar ExamTaskNetwork_no_CCTV.ConferenceLaptop.udpApp[0] 	rcvdPk:count 	24379
attr interpolationmode  none
attr source  rcvdPk
attr title  "packets received, count"
scalar ExamTaskNetwork_no_CCTV.ConferenceLaptop.udpApp[0] 	rcvdPk:sum(packetBytes) 	34130600
attr interpolationmode  none
attr source  rcvdPk
attr title  "packets received, sum(packetBytes)"
statistic ExamTaskNetwork_no_CCTV.ConferenceLaptop.udpApp[0] 	rcvdPkLifetime:stats
field count 24379
field mean 0.036750300923389
field stddev 0.017541424762933
field sum 895.93558621129
field sqrsum 40.42705158463
field min 0.016442755456
field max 0.101021004415
attr interpolationmode  none
attr source  messageAge(rcvdPk)
attr title  "received packet lifetime, stats"
attr unit  s
scalar ExamTaskNetwork_no_CCTV.ConferenceLaptop.udp 	droppedPkBadChecksum:count 	0
attr interpolationmode  none
attr title  "packets dropped (checksum error), count"
scalar ExamTaskNetwork_no_CCTV.ConferenceLaptop.udp 	droppedPkWrongPort:count 	0
attr interpolationmode  none
attr title  "packets dropped (wrong port), count"
scalar ExamTaskNetwork_no_CCTV.ConferenceLaptop.udp 	passedUpPk:count 	24379
attr interpolationmode  none
attr title  "packets passed up, count"
scalar ExamTaskNetwork_no_CCTV.ConferenceLaptop.udp 	sentPk:count 	24963
attr interpolationmode  none
attr source  sentPk
attr title  "packets sent, count"
scalar ExamTaskNetwork_no_CCTV.ConferenceLaptop.udp 	sentPk:sum(packetBytes) 	35147904
attr interpolationmode  none
attr source  sentPk
attr title  "packets sent, sum(packetBytes)"
scalar ExamTaskNetwork_no_CCTV.ConferenceLaptop.udp 	rcvdPk:count 	24379
attr interpolationmode  none
attr source  rcvdPk
attr title  "packets received, count"
scalar ExamTaskNetwork_no_CCTV.ConferenceLaptop.udp 	rcvdPk:sum(packetBytes) 	34325632
attr interpolationmode  none
attr source  rcvdPk
attr title  "packets received, sum(packetBytes)"
scalar ExamTaskNetwork_no_CCTV.FTPLaptop.networkLayer.arp 	initiatedARPResolution:count 	9
attr title  "ARP initiated resolutions, count"
scalar ExamTaskNetwork_no_CCTV.FTPLaptop.networkLayer.arp 	sentReply:count 	6
attr title  "ARP replies sent, count"
scalar ExamTaskNetwork_no_CCTV.FTPLaptop.networkLayer.arp 	sentReq:count 	10
attr title  "ARP request sent, count"
scalar ExamTaskNetwork_no_CCTV.FTPLaptop.networkLayer.arp 	failedARPResolution:count 	0
attr title  "ARP failed resolutions, count"
scalar ExamTaskNetwork_no_CCTV.FTPLaptop.networkLayer.arp 	completedARPResolution:count 	50
attr title  "ARP completed resolutions, count"
scalar ExamTaskNetwork_no_CCTV.FTPLaptop.lo0.lo 	rcvdPkFromHL:count 	0
attr interpolationmode  none
attr source  packetReceivedFromUpper
attr title  "packets received from higher layer, count"
scalar ExamTaskNetwork_no_CCTV.FTPLaptop.lo0.lo 	rcvdPkFromHL:sum(packetBytes) 	0
attr interpolationmode  none
attr source  packetReceivedFromUpper
attr title  "packets received from higher layer, sum(packetBytes)"
scalar ExamTaskNetwork_no_CCTV.FTPLaptop.lo0.lo 	passedUpPk:count 	0
attr interpolationmode  none
attr source  packetSentToUpper
attr title  "packets passed to higher layer, count"
scalar ExamTaskNetwork_no_CCTV.FTPLaptop.lo0.lo 	passedUpPk:sum(packetBytes) 	0
attr interpolationmode  none
attr source  packetSentToUpper
attr title  "packets passed to higher layer, sum(packetBytes)"
scalar ExamTaskNetwork_no_CCTV.FTPLaptop.lo0.lo 	droppedPkBitError:count 	0
attr interpolationmode  none
attr source  dropPkBitError
attr title  "packets dropped/bit error, count"
scalar ExamTaskNetwork_no_CCTV.FTPLaptop.lo0.lo 	droppedPkBitError:sum(packetBytes) 	0
attr interpolationmode  none
attr source  dropPkBitError
attr title  "packets dropped/bit error, sum(packetBytes)"
scalar ExamTaskNetwork_no_CCTV.FTPLaptop.wlan[0].agent 	dropConfirm:count 	0
attr title  "dropped confirms, count"
scalar ExamTaskNetwork_no_CCTV.FTPLaptop.wlan[0].agent 	acceptConfirm:count 	54
attr title  "accepted confirms, count"
scalar ExamTaskNetwork_no_CCTV.FTPLaptop.wlan[0].agent 	sentRequest:count 	54
attr title  "sent requests, count"
scalar ExamTaskNetwork_no_CCTV.FTPLaptop.wlan[0].mgmt 	dropPkByQueue:count 	1978
attr interpolationmode  none
attr source  dropPkByQueue
attr title  "packets dropped by queue, count"
scalar ExamTaskNetwork_no_CCTV.FTPLaptop.wlan[0].mgmt 	dropPkByQueue:sum(packetBytes) 	3061922
attr interpolationmode  none
attr source  dropPkByQueue
attr title  "packets dropped by queue, sum(packetBytes)"
scalar ExamTaskNetwork_no_CCTV.FTPLaptop.wlan[0].mgmt 	dataQueueLen:max 	50
attr interpolationmode  sample-hold
attr title  "data queue length, max"
scalar ExamTaskNetwork_no_CCTV.FTPLaptop.wlan[0].mgmt 	dataQueueLen:timeavg 	5.8281848307466
attr interpolationmode  sample-hold
attr title  "data queue length, timeavg"
scalar ExamTaskNetwork_no_CCTV.FTPLaptop.wlan[0].mac 	"number of received packets" 	455425
scalar ExamTaskNetwork_no_CCTV.FTPLaptop.wlan[0].mac 	"number of collisions" 	4291
scalar ExamTaskNetwork_no_CCTV.FTPLaptop.wlan[0].mac 	"number of internal collisions" 	0
scalar ExamTaskNetwork_no_CCTV.FTPLaptop.wlan[0].mac 	"number of retry for AC 0" 	86987
scalar ExamTaskNetwork_no_CCTV.FTPLaptop.wlan[0].mac 	"sent and received bits" 	5801566672
scalar ExamTaskNetwork_no_CCTV.FTPLaptop.wlan[0].mac 	"sent packet within AC 0" 	468604
scalar ExamTaskNetwork_no_CCTV.FTPLaptop.wlan[0].mac 	"sent in TXOP " 	0
scalar ExamTaskNetwork_no_CCTV.FTPLaptop.wlan[0].mac 	"sentWithoutRetry AC 0" 	398377
scalar ExamTaskNetwork_no_CCTV.FTPLaptop.wlan[0].mac 	"numGivenUp AC 0" 	1
scalar ExamTaskNetwork_no_CCTV.FTPLaptop.wlan[0].mac 	"numDropped AC 0" 	0
scalar ExamTaskNetwork_no_CCTV.FTPLaptop.wlan[0].mac 	rcvdPkFromHL:count 	468625
attr interpolationmode  none
attr source  packetReceivedFromUpper
attr title  "packets received from higher layer, count"
scalar ExamTaskNetwork_no_CCTV.FTPLaptop.wlan[0].mac 	rcvdPkFromHL:sum(packetBytes) 	725200478
attr interpolationmode  none
attr source  packetReceivedFromUpper
attr title  "packets received from higher layer, sum(packetBytes)"
scalar ExamTaskNetwork_no_CCTV.FTPLaptop.wlan[0].mac 	passedUpPk:count 	464729
attr interpolationmode  none
attr source  packetSentToUpper
attr title  "packets passed to higher layer, count"
scalar ExamTaskNetwork_no_CCTV.FTPLaptop.wlan[0].mac 	passedUpPk:sum(packetBytes) 	38065420
attr interpolationmode  none
attr source  packetSentToUpper
attr title  "packets passed to higher layer, sum(packetBytes)"
scalar ExamTaskNetwork_no_CCTV.FTPLaptop.wlan[0].mac 	rcvdPkFromLL:count 	2473137
attr interpolationmode  none
attr source  packetReceivedFromLower
attr title  "packets received from lower layer, count"
scalar ExamTaskNetwork_no_CCTV.FTPLaptop.wlan[0].mac 	rcvdPkFromLL:sum(packetBytes) 	551015937
attr interpolationmode  none
attr source  packetReceivedFromLower
attr title  "packets received from lower layer, sum(packetBytes)"
scalar ExamTaskNetwork_no_CCTV.FTPLaptop.wlan[0].mac 	sentDownPk:count 	1011036
attr interpolationmode  none
attr source  packetSentToLower
attr title  "packets sent to lower layer, count"
scalar ExamTaskNetwork_no_CCTV.FTPLaptop.wlan[0].mac 	sentDownPk:sum(packetBytes) 	866156708
attr interpolationmode  none
attr source  packetSentToLower
attr title  "packets sent to lower layer, sum(packetBytes)"
scalar ExamTaskNetwork_no_CCTV.FTPLaptop.wlan[0].radio 	lossRate:min 	0
attr interpolationmode  backward-sample-hold
attr title  "packet loss rate, min"
scalar ExamTaskNetwork_no_CCTV.FTPLaptop.wlan[0].radio 	lossRate:max 	0.18
attr interpolationmode  backward-sample-hold
attr title  "packet loss rate, max"
scalar ExamTaskNetwork_no_CCTV.FTPLaptop.wlan[0].radio 	lossRate:timeavg 	0.0016613366147665
attr interpolationmode  backward-sample-hold
attr title  "packet loss rate, timeavg"
statistic ExamTaskNetwork_no_CCTV.FTPLaptop.wlan[0].radio 	channelNo:histogram
field count 1
field mean 0
field stddev -nan
field sum 0
field sqrsum 0
field min 0
field max 0
attr interpolationmode  sample-hold
attr title  "channel no, histogram"
bin	-INF	0
bin	-0.5	0
bin	-0.46666666666667	0
bin	-0.43333333333333	0
bin	-0.4	0
bin	-0.36666666666667	0
bin	-0.33333333333333	0
bin	-0.3	0
bin	-0.26666666666667	0
bin	-0.23333333333333	0
bin	-0.2	0
bin	-0.16666666666667	0
bin	-0.13333333333333	0
bin	-0.1	0
bin	-0.066666666666667	0
bin	-0.033333333333333	0
bin	0	1
bin	0.033333333333333	0
bin	0.066666666666667	0
bin	0.1	0
bin	0.13333333333333	0
bin	0.16666666666667	0
bin	0.2	0
bin	0.23333333333333	0
bin	0.26666666666667	0
bin	0.3	0
bin	0.33333333333333	0
bin	0.36666666666667	0
bin	0.4	0
bin	0.43333333333333	0
bin	0.46666666666667	0
bin	0.5	0
scalar ExamTaskNetwork_no_CCTV.FTPLaptop.wlan[0].radio 	radioState:count 	7019771
attr interpolationmode  sample-hold
attr title  "radio state (enum), count"
scalar ExamTaskNetwork_no_CCTV.FTPLaptop.wlan[0].radio 	bitrate:min 	54000000
attr interpolationmode  sample-hold
attr title  "tx bitrate, min"
attr unit  bps
scalar ExamTaskNetwork_no_CCTV.FTPLaptop.wlan[0].radio 	bitrate:max 	54000000
attr interpolationmode  sample-hold
attr title  "tx bitrate, max"
attr unit  bps
scalar ExamTaskNetwork_no_CCTV.FTPLaptop.wlan[0].radio 	bitrate:timeavg 	54000000
attr interpolationmode  sample-hold
attr title  "tx bitrate, timeavg"
attr unit  bps
scalar ExamTaskNetwork_no_CCTV.FTPLaptop.tcpApp[0] 	bytesRcvd 	0
scalar ExamTaskNetwork_no_CCTV.FTPLaptop.tcpApp[0] 	bytesSent 	1778384896
scalar ExamTaskNetwork_no_CCTV.FTPLaptop.tcpApp[0] 	sentPk:count 	1
attr interpolationmode  none
attr source  sentPk
attr title  "packets sent, count"
scalar ExamTaskNetwork_no_CCTV.FTPLaptop.tcpApp[0] 	sentPk:sum(packetBytes) 	1778384896
attr interpolationmode  none
attr source  sentPk
attr title  "packets sent, sum(packetBytes)"
scalar ExamTaskNetwork_no_CCTV.FTPLaptop.tcpApp[0] 	rcvdPk:count 	0
attr interpolationmode  none
attr source  rcvdPk
attr title  "packets received, count"
scalar ExamTaskNetwork_no_CCTV.FTPLaptop.tcpApp[0] 	rcvdPk:sum(packetBytes) 	0
attr interpolationmode  none
attr source  rcvdPk
attr title  "packets received, sum(packetBytes)"
statistic ExamTaskNetwork_no_CCTV.FTPLaptop.tcpApp[0] 	endToEndDelay:histogram
field count 0
field mean -nan
field stddev -nan
field sum 0
field sqrsum 0
field min -nan
field max -nan
attr interpolationmode  none
attr source  messageAge(rcvdPk)
attr title  "end-to-end delay, histogram"
attr unit  s
bin	-INF	0
bin	-0.5	0
bin	-0.46666666666667	0
bin	-0.43333333333333	0
bin	-0.4	0
bin	-0.36666666666667	0
bin	-0.33333333333333	0
bin	-0.3	0
bin	-0.26666666666667	0
bin	-0.23333333333333	0
bin	-0.2	0
bin	-0.16666666666667	0
bin	-0.13333333333333	0
bin	-0.1	0
bin	-0.066666666666667	0
bin	-0.033333333333333	0
bin	0	0
bin	0.033333333333333	0
bin	0.066666666666667	0
bin	0.1	0
bin	0.13333333333333	0
bin	0.16666666666667	0
bin	0.2	0
bin	0.23333333333333	0
bin	0.26666666666667	0
bin	0.3	0
bin	0.33333333333333	0
bin	0.36666666666667	0
bin	0.4	0
bin	0.43333333333333	0
bin	0.46666666666667	0
bin	0.5	0
scalar ExamTaskNetwork_no_CCTV.BrowsingLaptop[0].networkLayer.arp 	initiatedARPResolution:count 	8
attr title  "ARP initiated resolutions, count"
scalar ExamTaskNetwork_no_CCTV.BrowsingLaptop[0].networkLayer.arp 	sentReply:count 	2
attr title  "ARP replies sent, count"
scalar ExamTaskNetwork_no_CCTV.BrowsingLaptop[0].networkLayer.arp 	sentReq:count 	8
attr title  "ARP request sent, count"
scalar ExamTaskNetwork_no_CCTV.BrowsingLaptop[0].networkLayer.arp 	failedARPResolution:count 	0
attr title  "ARP failed resolutions, count"
scalar ExamTaskNetwork_no_CCTV.BrowsingLaptop[0].networkLayer.arp 	completedARPResolution:count 	35
attr title  "ARP completed resolutions, count"
scalar ExamTaskNetwork_no_CCTV.BrowsingLaptop[0].lo0.lo 	rcvdPkFromHL:count 	0
attr interpolationmode  none
attr source  packetReceivedFromUpper
attr title  "packets received from higher layer, count"
scalar ExamTaskNetwork_no_CCTV.BrowsingLaptop[0].lo0.lo 	rcvdPkFromHL:sum(packetBytes) 	0
attr interpolationmode  none
attr source  packetReceivedFromUpper
attr title  "packets received from higher layer, sum(packetBytes)"
scalar ExamTaskNetwork_no_CCTV.BrowsingLaptop[0].lo0.lo 	passedUpPk:count 	0
attr interpolationmode  none
attr source  packetSentToUpper
attr title  "packets passed to higher layer, count"
scalar ExamTaskNetwork_no_CCTV.BrowsingLaptop[0].lo0.lo 	passedUpPk:sum(packetBytes) 	0
attr interpolationmode  none
attr source  packetSentToUpper
attr title  "packets passed to higher layer, sum(packetBytes)"
scalar ExamTaskNetwork_no_CCTV.BrowsingLaptop[0].lo0.lo 	droppedPkBitError:count 	0
attr interpolationmode  none
attr source  dropPkBitError
attr title  "packets dropped/bit error, count"
scalar ExamTaskNetwork_no_CCTV.BrowsingLaptop[0].lo0.lo 	droppedPkBitError:sum(packetBytes) 	0
attr interpolationmode  none
attr source  dropPkBitError
attr title  "packets dropped/bit error, sum(packetBytes)"
scalar ExamTaskNetwork_no_CCTV.BrowsingLaptop[0].wlan[0].agent 	dropConfirm:count 	0
attr title  "dropped confirms, count"
scalar ExamTaskNetwork_no_CCTV.BrowsingLaptop[0].wlan[0].agent 	acceptConfirm:count 	54
attr title  "accepted confirms, count"
scalar ExamTaskNetwork_no_CCTV.BrowsingLaptop[0].wlan[0].agent 	sentRequest:count 	54
attr title  "sent requests, count"
scalar ExamTaskNetwork_no_CCTV.BrowsingLaptop[0].wlan[0].mgmt 	dropPkByQueue:count 	0
attr interpolationmode  none
attr source  dropPkByQueue
attr title  "packets dropped by queue, count"
scalar ExamTaskNetwork_no_CCTV.BrowsingLaptop[0].wlan[0].mgmt 	dropPkByQueue:sum(packetBytes) 	0
attr interpolationmode  none
attr source  dropPkByQueue
attr title  "packets dropped by queue, sum(packetBytes)"
scalar ExamTaskNetwork_no_CCTV.BrowsingLaptop[0].wlan[0].mgmt 	dataQueueLen:max 	14
attr interpolationmode  sample-hold
attr title  "data queue length, max"
scalar ExamTaskNetwork_no_CCTV.BrowsingLaptop[0].wlan[0].mgmt 	dataQueueLen:timeavg 	6.2280424556522e-05
attr interpolationmode  sample-hold
attr title  "data queue length, timeavg"
scalar ExamTaskNetwork_no_CCTV.BrowsingLaptop[0].wlan[0].mac 	"number of received packets" 	30195
scalar ExamTaskNetwork_no_CCTV.BrowsingLaptop[0].wlan[0].mac 	"number of collisions" 	52218
scalar ExamTaskNetwork_no_CCTV.BrowsingLaptop[0].wlan[0].mac 	"number of internal collisions" 	0
scalar ExamTaskNetwork_no_CCTV.BrowsingLaptop[0].wlan[0].mac 	"number of retry for AC 0" 	133
scalar ExamTaskNetwork_no_CCTV.BrowsingLaptop[0].wlan[0].mac 	"sent and received bits" 	11993632
scalar ExamTaskNetwork_no_CCTV.BrowsingLaptop[0].wlan[0].mac 	"sent packet within AC 0" 	14987
scalar ExamTaskNetwork_no_CCTV.BrowsingLaptop[0].wlan[0].mac 	"sent in TXOP " 	0
scalar ExamTaskNetwork_no_CCTV.BrowsingLaptop[0].wlan[0].mac 	"sentWithoutRetry AC 0" 	14905
scalar ExamTaskNetwork_no_CCTV.BrowsingLaptop[0].wlan[0].mac 	"numGivenUp AC 0" 	0
scalar ExamTaskNetwork_no_CCTV.BrowsingLaptop[0].wlan[0].mac 	"numDropped AC 0" 	0
scalar ExamTaskNetwork_no_CCTV.BrowsingLaptop[0].wlan[0].mac 	rcvdPkFromHL:count 	15005
attr interpolationmode  none
attr source  packetReceivedFromUpper
attr title  "packets received from higher layer, count"
scalar ExamTaskNetwork_no_CCTV.BrowsingLaptop[0].wlan[0].mac 	rcvdPkFromHL:sum(packetBytes) 	1499204
attr interpolationmode  none
attr source  packetReceivedFromUpper
attr title  "packets received from higher layer, sum(packetBytes)"
scalar ExamTaskNetwork_no_CCTV.BrowsingLaptop[0].wlan[0].mac 	passedUpPk:count 	39502
attr interpolationmode  none
attr source  packetSentToUpper
attr title  "packets passed to higher layer, count"
scalar ExamTaskNetwork_no_CCTV.BrowsingLaptop[0].wlan[0].mac 	passedUpPk:sum(packetBytes) 	25381555
attr interpolationmode  none
attr source  packetSentToUpper
attr title  "packets passed to higher layer, sum(packetBytes)"
scalar ExamTaskNetwork_no_CCTV.BrowsingLaptop[0].wlan[0].mac 	rcvdPkFromLL:count 	3438840
attr interpolationmode  none
attr source  packetReceivedFromLower
attr title  "packets received from lower layer, count"
scalar ExamTaskNetwork_no_CCTV.BrowsingLaptop[0].wlan[0].mac 	rcvdPkFromLL:sum(packetBytes) 	1368376623
attr interpolationmode  none
attr source  packetReceivedFromLower
attr title  "packets received from lower layer, sum(packetBytes)"
scalar ExamTaskNetwork_no_CCTV.BrowsingLaptop[0].wlan[0].mac 	sentDownPk:count 	45333
attr interpolationmode  none
attr source  packetSentToLower
attr title  "packets sent to lower layer, count"
scalar ExamTaskNetwork_no_CCTV.BrowsingLaptop[0].wlan[0].mac 	sentDownPk:sum(packetBytes) 	1997266
attr interpolationmode  none
attr source  packetSentToLower
attr title  "packets sent to lower layer, sum(packetBytes)"
scalar ExamTaskNetwork_no_CCTV.BrowsingLaptop[0].wlan[0].radio 	lossRate:min 	0
attr interpolationmode  backward-sample-hold
attr title  "packet loss rate, min"
scalar ExamTaskNetwork_no_CCTV.BrowsingLaptop[0].wlan[0].radio 	lossRate:max 	0.16
attr interpolationmode  backward-sample-hold
attr title  "packet loss rate, max"
scalar ExamTaskNetwork_no_CCTV.BrowsingLaptop[0].wlan[0].radio 	lossRate:timeavg 	0.014219799784978
attr interpolationmode  backward-sample-hold
attr title  "packet loss rate, timeavg"
statistic ExamTaskNetwork_no_CCTV.BrowsingLaptop[0].wlan[0].radio 	channelNo:histogram
field count 1
field mean 0
field stddev -nan
field sum 0
field sqrsum 0
field min 0
field max 0
attr interpolationmode  sample-hold
attr title  "channel no, histogram"
bin	-INF	0
bin	-0.5	0
bin	-0.46666666666667	0
bin	-0.43333333333333	0
bin	-0.4	0
bin	-0.36666666666667	0
bin	-0.33333333333333	0
bin	-0.3	0
bin	-0.26666666666667	0
bin	-0.23333333333333	0
bin	-0.2	0
bin	-0.16666666666667	0
bin	-0.13333333333333	0
bin	-0.1	0
bin	-0.066666666666667	0
bin	-0.033333333333333	0
bin	0	1
bin	0.033333333333333	0
bin	0.066666666666667	0
bin	0.1	0
bin	0.13333333333333	0
bin	0.16666666666667	0
bin	0.2	0
bin	0.23333333333333	0
bin	0.26666666666667	0
bin	0.3	0
bin	0.33333333333333	0
bin	0.36666666666667	0
bin	0.4	0
bin	0.43333333333333	0
bin	0.46666666666667	0
bin	0.5	0
scalar ExamTaskNetwork_no_CCTV.BrowsingLaptop[0].wlan[0].radio 	radioState:count 	6968498
attr interpolationmode  sample-hold
attr title  "radio state (enum), count"
scalar ExamTaskNetwork_no_CCTV.BrowsingLaptop[0].wlan[0].radio 	bitrate:min 	54000000
attr interpolationmode  sample-hold
attr title  "tx bitrate, min"
attr unit  bps
scalar ExamTaskNetwork_no_CCTV.BrowsingLaptop[0].wlan[0].radio 	bitrate:max 	54000000
attr interpolationmode  sample-hold
attr title  "tx bitrate, max"
attr unit  bps
scalar ExamTaskNetwork_no_CCTV.BrowsingLaptop[0].wlan[0].radio 	bitrate:timeavg 	54000000
attr interpolationmode  sample-hold
attr title  "tx bitrate, timeavg"
attr unit  bps
scalar ExamTaskNetwork_no_CCTV.BrowsingLaptop[0].tcpApp[0] 	numActiveSessions:max 	1
attr interpolationmode  sample-hold
attr source  sum(connect)
attr title  "number of active sessions, max"
scalar ExamTaskNetwork_no_CCTV.BrowsingLaptop[0].tcpApp[0] 	numActiveSessions:timeavg 	0.39321703650617
attr interpolationmode  sample-hold
attr source  sum(connect)
attr title  "number of active sessions, timeavg"
scalar ExamTaskNetwork_no_CCTV.BrowsingLaptop[0].tcpApp[0] 	numSessions:last 	33
attr source  sum(connect+1)/2
attr title  "total number of sessions, last"
scalar ExamTaskNetwork_no_CCTV.BrowsingLaptop[0].tcpApp[0] 	sentPk:count 	33
attr interpolationmode  none
attr source  sentPk
attr title  "packets sent, count"
scalar ExamTaskNetwork_no_CCTV.BrowsingLaptop[0].tcpApp[0] 	sentPk:sum(packetBytes) 	270336
attr interpolationmode  none
attr source  sentPk
attr title  "packets sent, sum(packetBytes)"
scalar ExamTaskNetwork_no_CCTV.BrowsingLaptop[0].tcpApp[0] 	rcvdPk:count 	32
attr interpolationmode  none
attr source  rcvdPk
attr title  "packets received, count"
scalar ExamTaskNetwork_no_CCTV.BrowsingLaptop[0].tcpApp[0] 	rcvdPk:sum(packetBytes) 	20744260
attr interpolationmode  none
attr source  rcvdPk
attr title  "packets received, sum(packetBytes)"
statistic ExamTaskNetwork_no_CCTV.BrowsingLaptop[0].tcpApp[0] 	endToEndDelay:histogram
field count 32
field mean 11.84536428973
field stddev 8.9208085492404
field sum 379.05165727137
field sqrsum 6957.0105453436
field min 0.445971443442
field max 40.277458087461
attr interpolationmode  none
attr source  messageAge(rcvdPk)
attr title  "end-to-end delay, histogram"
attr unit  s
bin	-INF	0
bin	-19.469771878568	0
bin	-16.814339435633	0
bin	-14.158906992698	0
bin	-11.503474549764	0
bin	-8.8480421068291	0
bin	-6.1926096638945	0
bin	-3.5371772209599	0
bin	-0.8817447780253	1
bin	1.7736876649093	3
bin	4.4291201078439	7
bin	7.0845525507785	4
bin	9.7399849937131	5
bin	12.395417436648	2
bin	15.050849879582	4
bin	17.706282322517	3
bin	20.361714765451	1
bin	23.017147208386	0
bin	25.672579651321	0
bin	28.328012094255	0
bin	30.98344453719	0
bin	33.638876980124	0
bin	36.294309423059	1
bin	38.949741865994	1
bin	41.605174308928	0
bin	44.260606751863	0
bin	46.916039194797	0
bin	49.571471637732	0
bin	52.226904080667	0
bin	54.882336523601	0
bin	57.537768966536	0
bin	60.193201409471	0
scalar ExamTaskNetwork_no_CCTV.BrowsingLaptop[1].networkLayer.arp 	initiatedARPResolution:count 	8
attr title  "ARP initiated resolutions, count"
scalar ExamTaskNetwork_no_CCTV.BrowsingLaptop[1].networkLayer.arp 	sentReply:count 	0
attr title  "ARP replies sent, count"
scalar ExamTaskNetwork_no_CCTV.BrowsingLaptop[1].networkLayer.arp 	sentReq:count 	9
attr title  "ARP request sent, count"
scalar ExamTaskNetwork_no_CCTV.BrowsingLaptop[1].networkLayer.arp 	failedARPResolution:count 	0
attr title  "ARP failed resolutions, count"
scalar ExamTaskNetwork_no_CCTV.BrowsingLaptop[1].networkLayer.arp 	completedARPResolution:count 	8
attr title  "ARP completed resolutions, count"
scalar ExamTaskNetwork_no_CCTV.BrowsingLaptop[1].lo0.lo 	rcvdPkFromHL:count 	0
attr interpolationmode  none
attr source  packetReceivedFromUpper
attr title  "packets received from higher layer, count"
scalar ExamTaskNetwork_no_CCTV.BrowsingLaptop[1].lo0.lo 	rcvdPkFromHL:sum(packetBytes) 	0
attr interpolationmode  none
attr source  packetReceivedFromUpper
attr title  "packets received from higher layer, sum(packetBytes)"
scalar ExamTaskNetwork_no_CCTV.BrowsingLaptop[1].lo0.lo 	passedUpPk:count 	0
attr interpolationmode  none
attr source  packetSentToUpper
attr title  "packets passed to higher layer, count"
scalar ExamTaskNetwork_no_CCTV.BrowsingLaptop[1].lo0.lo 	passedUpPk:sum(packetBytes) 	0
attr interpolationmode  none
attr source  packetSentToUpper
attr title  "packets passed to higher layer, sum(packetBytes)"
scalar ExamTaskNetwork_no_CCTV.BrowsingLaptop[1].lo0.lo 	droppedPkBitError:count 	0
attr interpolationmode  none
attr source  dropPkBitError
attr title  "packets dropped/bit error, count"
scalar ExamTaskNetwork_no_CCTV.BrowsingLaptop[1].lo0.lo 	droppedPkBitError:sum(packetBytes) 	0
attr interpolationmode  none
attr source  dropPkBitError
attr title  "packets dropped/bit error, sum(packetBytes)"
scalar ExamTaskNetwork_no_CCTV.BrowsingLaptop[1].wlan[0].agent 	dropConfirm:count 	0
attr title  "dropped confirms, count"
scalar ExamTaskNetwork_no_CCTV.BrowsingLaptop[1].wlan[0].agent 	acceptConfirm:count 	54
attr title  "accepted confirms, count"
scalar ExamTaskNetwork_no_CCTV.BrowsingLaptop[1].wlan[0].agent 	sentRequest:count 	54
attr title  "sent requests, count"
scalar ExamTaskNetwork_no_CCTV.BrowsingLaptop[1].wlan[0].mgmt 	dropPkByQueue:count 	148
attr interpolationmode  none
attr source  dropPkByQueue
attr title  "packets dropped by queue, count"
scalar ExamTaskNetwork_no_CCTV.BrowsingLaptop[1].wlan[0].mgmt 	dropPkByQueue:sum(packetBytes) 	14504
attr interpolationmode  none
attr source  dropPkByQueue
attr title  "packets dropped by queue, sum(packetBytes)"
scalar ExamTaskNetwork_no_CCTV.BrowsingLaptop[1].wlan[0].mgmt 	dataQueueLen:max 	50
attr interpolationmode  sample-hold
attr title  "data queue length, max"
scalar ExamTaskNetwork_no_CCTV.BrowsingLaptop[1].wlan[0].mgmt 	dataQueueLen:timeavg 	0.021821787417501
attr interpolationmode  sample-hold
attr title  "data queue length, timeavg"
scalar ExamTaskNetwork_no_CCTV.BrowsingLaptop[1].wlan[0].mac 	"number of received packets" 	33934
scalar ExamTaskNetwork_no_CCTV.BrowsingLaptop[1].wlan[0].mac 	"number of collisions" 	51978
scalar ExamTaskNetwork_no_CCTV.BrowsingLaptop[1].wlan[0].mac 	"number of internal collisions" 	0
scalar ExamTaskNetwork_no_CCTV.BrowsingLaptop[1].wlan[0].mac 	"number of retry for AC 0" 	362
scalar ExamTaskNetwork_no_CCTV.BrowsingLaptop[1].wlan[0].mac 	"sent and received bits" 	13718304
scalar ExamTaskNetwork_no_CCTV.BrowsingLaptop[1].wlan[0].mac 	"sent packet within AC 0" 	17628
scalar ExamTaskNetwork_no_CCTV.BrowsingLaptop[1].wlan[0].mac 	"sent in TXOP " 	0
scalar ExamTaskNetwork_no_CCTV.BrowsingLaptop[1].wlan[0].mac 	"sentWithoutRetry AC 0" 	17345
scalar ExamTaskNetwork_no_CCTV.BrowsingLaptop[1].wlan[0].mac 	"numGivenUp AC 0" 	0
scalar ExamTaskNetwork_no_CCTV.BrowsingLaptop[1].wlan[0].mac 	"numDropped AC 0" 	0
scalar ExamTaskNetwork_no_CCTV.BrowsingLaptop[1].wlan[0].mac 	rcvdPkFromHL:count 	17646
attr interpolationmode  none
attr source  packetReceivedFromUpper
attr title  "packets received from higher layer, count"
scalar ExamTaskNetwork_no_CCTV.BrowsingLaptop[1].wlan[0].mac 	rcvdPkFromHL:sum(packetBytes) 	1714788
attr interpolationmode  none
attr source  packetReceivedFromUpper
attr title  "packets received from higher layer, sum(packetBytes)"
scalar ExamTaskNetwork_no_CCTV.BrowsingLaptop[1].wlan[0].mac 	passedUpPk:count 	43239
attr interpolationmode  none
attr source  packetSentToUpper
attr title  "packets passed to higher layer, count"
scalar ExamTaskNetwork_no_CCTV.BrowsingLaptop[1].wlan[0].mac 	passedUpPk:sum(packetBytes) 	28591261
attr interpolationmode  none
attr source  packetSentToUpper
attr title  "packets passed to higher layer, sum(packetBytes)"
scalar ExamTaskNetwork_no_CCTV.BrowsingLaptop[1].wlan[0].mac 	rcvdPkFromLL:count 	3432231
attr interpolationmode  none
attr source  packetReceivedFromLower
attr title  "packets received from lower layer, count"
scalar ExamTaskNetwork_no_CCTV.BrowsingLaptop[1].wlan[0].mac 	rcvdPkFromLL:sum(packetBytes) 	1367969627
attr interpolationmode  none
attr source  packetReceivedFromLower
attr title  "packets received from lower layer, sum(packetBytes)"
scalar ExamTaskNetwork_no_CCTV.BrowsingLaptop[1].wlan[0].mac 	sentDownPk:count 	51942
attr interpolationmode  none
attr source  packetSentToLower
attr title  "packets sent to lower layer, count"
scalar ExamTaskNetwork_no_CCTV.BrowsingLaptop[1].wlan[0].mac 	sentDownPk:sum(packetBytes) 	2268648
attr interpolationmode  none
attr source  packetSentToLower
attr title  "packets sent to lower layer, sum(packetBytes)"
scalar ExamTaskNetwork_no_CCTV.BrowsingLaptop[1].wlan[0].radio 	lossRate:min 	0
attr interpolationmode  backward-sample-hold
attr title  "packet loss rate, min"
scalar ExamTaskNetwork_no_CCTV.BrowsingLaptop[1].wlan[0].radio 	lossRate:max 	0.18
attr interpolationmode  backward-sample-hold
attr title  "packet loss rate, max"
scalar ExamTaskNetwork_no_CCTV.BrowsingLaptop[1].wlan[0].radio 	lossRate:timeavg 	0.014228037340371
attr interpolationmode  backward-sample-hold
attr title  "packet loss rate, timeavg"
statistic ExamTaskNetwork_no_CCTV.BrowsingLaptop[1].wlan[0].radio 	channelNo:histogram
field count 1
field mean 0
field stddev -nan
field sum 0
field sqrsum 0
field min 0
field max 0
attr interpolationmode  sample-hold
attr title  "channel no, histogram"
bin	-INF	0
bin	-0.5	0
bin	-0.46666666666667	0
bin	-0.43333333333333	0
bin	-0.4	0
bin	-0.36666666666667	0
bin	-0.33333333333333	0
bin	-0.3	0
bin	-0.26666666666667	0
bin	-0.23333333333333	0
bin	-0.2	0
bin	-0.16666666666667	0
bin	-0.13333333333333	0
bin	-0.1	0
bin	-0.066666666666667	0
bin	-0.033333333333333	0
bin	0	1
bin	0.033333333333333	0
bin	0.066666666666667	0
bin	0.1	0
bin	0.13333333333333	0
bin	0.16666666666667	0
bin	0.2	0
bin	0.23333333333333	0
bin	0.26666666666667	0
bin	0.3	0
bin	0.33333333333333	0
bin	0.36666666666667	0
bin	0.4	0
bin	0.43333333333333	0
bin	0.46666666666667	0
bin	0.5	0
scalar ExamTaskNetwork_no_CCTV.BrowsingLaptop[1].wlan[0].radio 	radioState:count 	6968806
attr interpolationmode  sample-hold
attr title  "radio state (enum), count"
scalar ExamTaskNetwork_no_CCTV.BrowsingLaptop[1].wlan[0].radio 	bitrate:min 	54000000
attr interpolationmode  sample-hold
attr title  "tx bitrate, min"
attr unit  bps
scalar ExamTaskNetwork_no_CCTV.BrowsingLaptop[1].wlan[0].radio 	bitrate:max 	54000000
attr interpolationmode  sample-hold
attr title  "tx bitrate, max"
attr unit  bps
scalar ExamTaskNetwork_no_CCTV.BrowsingLaptop[1].wlan[0].radio 	bitrate:timeavg 	54000000
attr interpolationmode  sample-hold
attr title  "tx bitrate, timeavg"
attr unit  bps
scalar ExamTaskNetwork_no_CCTV.BrowsingLaptop[1].tcpApp[0] 	numActiveSessions:max 	1
attr interpolationmode  sample-hold
attr source  sum(connect)
attr title  "number of active sessions, max"
scalar ExamTaskNetwork_no_CCTV.BrowsingLaptop[1].tcpApp[0] 	numActiveSessions:timeavg 	0.41411076462258
attr interpolationmode  sample-hold
attr source  sum(connect)
attr title  "number of active sessions, timeavg"
scalar ExamTaskNetwork_no_CCTV.BrowsingLaptop[1].tcpApp[0] 	numSessions:last 	31
attr source  sum(connect+1)/2
attr title  "total number of sessions, last"
scalar ExamTaskNetwork_no_CCTV.BrowsingLaptop[1].tcpApp[0] 	sentPk:count 	31
attr interpolationmode  none
attr source  sentPk
attr title  "packets sent, count"
scalar ExamTaskNetwork_no_CCTV.BrowsingLaptop[1].tcpApp[0] 	sentPk:sum(packetBytes) 	253952
attr interpolationmode  none
attr source  sentPk
attr title  "packets sent, sum(packetBytes)"
scalar ExamTaskNetwork_no_CCTV.BrowsingLaptop[1].tcpApp[0] 	rcvdPk:count 	31
attr interpolationmode  none
attr source  rcvdPk
attr title  "packets received, count"
scalar ExamTaskNetwork_no_CCTV.BrowsingLaptop[1].tcpApp[0] 	rcvdPk:sum(packetBytes) 	23241249
attr interpolationmode  none
attr source  rcvdPk
attr title  "packets received, sum(packetBytes)"
statistic ExamTaskNetwork_no_CCTV.BrowsingLaptop[1].tcpApp[0] 	endToEndDelay:histogram
field count 31
field mean 13.194781848155
field stddev 11.453299718054
field sum 409.0382372928
field sqrsum 9332.5125415794
field min 0.778685357548
field max 43.931246313073
attr interpolationmode  none
attr source  messageAge(rcvdPk)
attr title  "end-to-end delay, histogram"
attr unit  s
bin	-INF	0
bin	-20.797595120214	0
bin	-17.920757723179	0
bin	-15.043920326144	0
bin	-12.16708292911	0
bin	-9.2902455320745	0
bin	-6.4134081350395	0
bin	-3.5365707380045	0
bin	-0.6597333409695	4
bin	2.2171040560655	1
bin	5.0939414531005	8
bin	7.9707788501355	6
bin	10.84761624717	3
bin	13.724453644205	2
bin	16.60129104124	0
bin	19.478128438275	0
bin	22.35496583531	0
bin	25.231803232345	0
bin	28.10864062938	5
bin	30.985478026415	0
bin	33.86231542345	1
bin	36.739152820486	0
bin	39.61599021752	0
bin	42.492827614555	1
bin	45.36966501159	0
bin	48.246502408625	0
bin	51.12333980566	0
bin	54.000177202695	0
bin	56.877014599731	0
bin	59.753851996765	0
bin	62.6306893938	0
bin	65.507526790835	0
scalar ExamTaskNetwork_no_CCTV.BrowsingLaptop[2].networkLayer.arp 	initiatedARPResolution:count 	8
attr title  "ARP initiated resolutions, count"
scalar ExamTaskNetwork_no_CCTV.BrowsingLaptop[2].networkLayer.arp 	sentReply:count 	2
attr title  "ARP replies sent, count"
scalar ExamTaskNetwork_no_CCTV.BrowsingLaptop[2].networkLayer.arp 	sentReq:count 	8
attr title  "ARP request sent, count"
scalar ExamTaskNetwork_no_CCTV.BrowsingLaptop[2].networkLayer.arp 	failedARPResolution:count 	0
attr title  "ARP failed resolutions, count"
scalar ExamTaskNetwork_no_CCTV.BrowsingLaptop[2].networkLayer.arp 	completedARPResolution:count 	43
attr title  "ARP completed resolutions, count"
scalar ExamTaskNetwork_no_CCTV.BrowsingLaptop[2].lo0.lo 	rcvdPkFromHL:count 	0
attr interpolationmode  none
attr source  packetReceivedFromUpper
attr title  "packets received from higher layer, count"
scalar ExamTaskNetwork_no_CCTV.BrowsingLaptop[2].lo0.lo 	rcvdPkFromHL:sum(packetBytes) 	0
attr interpolationmode  none
attr source  packetReceivedFromUpper
attr title  "packets received from higher layer, sum(packetBytes)"
scalar ExamTaskNetwork_no_CCTV.BrowsingLaptop[2].lo0.lo 	passedUpPk:count 	0
attr interpolationmode  none
attr source  packetSentToUpper
attr title  "packets passed to higher layer, count"
scalar ExamTaskNetwork_no_CCTV.BrowsingLaptop[2].lo0.lo 	passedUpPk:sum(packetBytes) 	0
attr interpolationmode  none
attr source  packetSentToUpper
attr title  "packets passed to higher layer, sum(packetBytes)"
scalar ExamTaskNetwork_no_CCTV.BrowsingLaptop[2].lo0.lo 	droppedPkBitError:count 	0
attr interpolationmode  none
attr source  dropPkBitError
attr title  "packets dropped/bit error, count"
scalar ExamTaskNetwork_no_CCTV.BrowsingLaptop[2].lo0.lo 	droppedPkBitError:sum(packetBytes) 	0
attr interpolationmode  none
attr source  dropPkBitError
attr title  "packets dropped/bit error, sum(packetBytes)"
scalar ExamTaskNetwork_no_CCTV.BrowsingLaptop[2].wlan[0].agent 	dropConfirm:count 	0
attr title  "dropped confirms, count"
scalar ExamTaskNetwork_no_CCTV.BrowsingLaptop[2].wlan[0].agent 	acceptConfirm:count 	54
attr title  "accepted confirms, count"
scalar ExamTaskNetwork_no_CCTV.BrowsingLaptop[2].wlan[0].agent 	sentRequest:count 	54
attr title  "sent requests, count"
scalar ExamTaskNetwork_no_CCTV.BrowsingLaptop[2].wlan[0].mgmt 	dropPkByQueue:count 	0
attr interpolationmode  none
attr source  dropPkByQueue
attr title  "packets dropped by queue, count"
scalar ExamTaskNetwork_no_CCTV.BrowsingLaptop[2].wlan[0].mgmt 	dropPkByQueue:sum(packetBytes) 	0
attr interpolationmode  none
attr source  dropPkByQueue
attr title  "packets dropped by queue, sum(packetBytes)"
scalar ExamTaskNetwork_no_CCTV.BrowsingLaptop[2].wlan[0].mgmt 	dataQueueLen:max 	0
attr interpolationmode  sample-hold
attr title  "data queue length, max"
scalar ExamTaskNetwork_no_CCTV.BrowsingLaptop[2].wlan[0].mgmt 	dataQueueLen:timeavg 	0
attr interpolationmode  sample-hold
attr title  "data queue length, timeavg"
scalar ExamTaskNetwork_no_CCTV.BrowsingLaptop[2].wlan[0].mac 	"number of received packets" 	19599
scalar ExamTaskNetwork_no_CCTV.BrowsingLaptop[2].wlan[0].mac 	"number of collisions" 	52244
scalar ExamTaskNetwork_no_CCTV.BrowsingLaptop[2].wlan[0].mac 	"number of internal collisions" 	0
scalar ExamTaskNetwork_no_CCTV.BrowsingLaptop[2].wlan[0].mac 	"number of retry for AC 0" 	93
scalar ExamTaskNetwork_no_CCTV.BrowsingLaptop[2].wlan[0].mac 	"sent and received bits" 	8451232
scalar ExamTaskNetwork_no_CCTV.BrowsingLaptop[2].wlan[0].mac 	"sent packet within AC 0" 	9787
scalar ExamTaskNetwork_no_CCTV.BrowsingLaptop[2].wlan[0].mac 	"sent in TXOP " 	0
scalar ExamTaskNetwork_no_CCTV.BrowsingLaptop[2].wlan[0].mac 	"sentWithoutRetry AC 0" 	9722
scalar ExamTaskNetwork_no_CCTV.BrowsingLaptop[2].wlan[0].mac 	"numGivenUp AC 0" 	0
scalar ExamTaskNetwork_no_CCTV.BrowsingLaptop[2].wlan[0].mac 	"numDropped AC 0" 	0
scalar ExamTaskNetwork_no_CCTV.BrowsingLaptop[2].wlan[0].mac 	rcvdPkFromHL:count 	9805
attr interpolationmode  none
attr source  packetReceivedFromUpper
attr title  "packets received from higher layer, count"
scalar ExamTaskNetwork_no_CCTV.BrowsingLaptop[2].wlan[0].mac 	rcvdPkFromHL:sum(packetBytes) 	1056404
attr interpolationmode  none
attr source  packetReceivedFromUpper
attr title  "packets received from higher layer, sum(packetBytes)"
scalar ExamTaskNetwork_no_CCTV.BrowsingLaptop[2].wlan[0].mac 	passedUpPk:count 	28905
attr interpolationmode  none
attr source  packetSentToUpper
attr title  "packets passed to higher layer, count"
scalar ExamTaskNetwork_no_CCTV.BrowsingLaptop[2].wlan[0].mac 	passedUpPk:sum(packetBytes) 	16612714
attr interpolationmode  none
attr source  packetSentToUpper
attr title  "packets passed to higher layer, sum(packetBytes)"
scalar ExamTaskNetwork_no_CCTV.BrowsingLaptop[2].wlan[0].mac 	rcvdPkFromLL:count 	3454676
attr interpolationmode  none
attr source  packetReceivedFromLower
attr title  "packets received from lower layer, count"
scalar ExamTaskNetwork_no_CCTV.BrowsingLaptop[2].wlan[0].mac 	rcvdPkFromLL:sum(packetBytes) 	1368997327
attr interpolationmode  none
attr source  packetReceivedFromLower
attr title  "packets received from lower layer, sum(packetBytes)"
scalar ExamTaskNetwork_no_CCTV.BrowsingLaptop[2].wlan[0].mac 	sentDownPk:count 	29497
attr interpolationmode  none
attr source  packetSentToLower
attr title  "packets sent to lower layer, count"
scalar ExamTaskNetwork_no_CCTV.BrowsingLaptop[2].wlan[0].mac 	sentDownPk:sum(packetBytes) 	1387538
attr interpolationmode  none
attr source  packetSentToLower
attr title  "packets sent to lower layer, sum(packetBytes)"
scalar ExamTaskNetwork_no_CCTV.BrowsingLaptop[2].wlan[0].radio 	lossRate:min 	0
attr interpolationmode  backward-sample-hold
attr title  "packet loss rate, min"
scalar ExamTaskNetwork_no_CCTV.BrowsingLaptop[2].wlan[0].radio 	lossRate:max 	0.18
attr interpolationmode  backward-sample-hold
attr title  "packet loss rate, max"
scalar ExamTaskNetwork_no_CCTV.BrowsingLaptop[2].wlan[0].radio 	lossRate:timeavg 	0.014185581528701
attr interpolationmode  backward-sample-hold
attr title  "packet loss rate, timeavg"
statistic ExamTaskNetwork_no_CCTV.BrowsingLaptop[2].wlan[0].radio 	channelNo:histogram
field count 1
field mean 0
field stddev -nan
field sum 0
field sqrsum 0
field min 0
field max 0
attr interpolationmode  sample-hold
attr title  "channel no, histogram"
bin	-INF	0
bin	-0.5	0
bin	-0.46666666666667	0
bin	-0.43333333333333	0
bin	-0.4	0
bin	-0.36666666666667	0
bin	-0.33333333333333	0
bin	-0.3	0
bin	-0.26666666666667	0
bin	-0.23333333333333	0
bin	-0.2	0
bin	-0.16666666666667	0
bin	-0.13333333333333	0
bin	-0.1	0
bin	-0.066666666666667	0
bin	-0.033333333333333	0
bin	0	1
bin	0.033333333333333	0
bin	0.066666666666667	0
bin	0.1	0
bin	0.13333333333333	0
bin	0.16666666666667	0
bin	0.2	0
bin	0.23333333333333	0
bin	0.26666666666667	0
bin	0.3	0
bin	0.33333333333333	0
bin	0.36666666666667	0
bin	0.4	0
bin	0.43333333333333	0
bin	0.46666666666667	0
bin	0.5	0
scalar ExamTaskNetwork_no_CCTV.BrowsingLaptop[2].wlan[0].radio 	radioState:count 	6968464
attr interpolationmode  sample-hold
attr title  "radio state (enum), count"
scalar ExamTaskNetwork_no_CCTV.BrowsingLaptop[2].wlan[0].radio 	bitrate:min 	54000000
attr interpolationmode  sample-hold
attr title  "tx bitrate, min"
attr unit  bps
scalar ExamTaskNetwork_no_CCTV.BrowsingLaptop[2].wlan[0].radio 	bitrate:max 	54000000
attr interpolationmode  sample-hold
attr title  "tx bitrate, max"
attr unit  bps
scalar ExamTaskNetwork_no_CCTV.BrowsingLaptop[2].wlan[0].radio 	bitrate:timeavg 	54000000
attr interpolationmode  sample-hold
attr title  "tx bitrate, timeavg"
attr unit  bps
scalar ExamTaskNetwork_no_CCTV.BrowsingLaptop[2].tcpApp[0] 	numActiveSessions:max 	1
attr interpolationmode  sample-hold
attr source  sum(connect)
attr title  "number of active sessions, max"
scalar ExamTaskNetwork_no_CCTV.BrowsingLaptop[2].tcpApp[0] 	numActiveSessions:timeavg 	0.25983770282516
attr interpolationmode  sample-hold
attr source  sum(connect)
attr title  "number of active sessions, timeavg"
scalar ExamTaskNetwork_no_CCTV.BrowsingLaptop[2].tcpApp[0] 	numSessions:last 	31
attr source  sum(connect+1)/2
attr title  "total number of sessions, last"
scalar ExamTaskNetwork_no_CCTV.BrowsingLaptop[2].tcpApp[0] 	sentPk:count 	31
attr interpolationmode  none
attr source  sentPk
attr title  "packets sent, count"
scalar ExamTaskNetwork_no_CCTV.BrowsingLaptop[2].tcpApp[0] 	sentPk:sum(packetBytes) 	253952
attr interpolationmode  none
attr source  sentPk
attr title  "packets sent, sum(packetBytes)"
scalar ExamTaskNetwork_no_CCTV.BrowsingLaptop[2].tcpApp[0] 	rcvdPk:count 	31
attr interpolationmode  none
attr source  rcvdPk
attr title  "packets received, count"
scalar ExamTaskNetwork_no_CCTV.BrowsingLaptop[2].tcpApp[0] 	rcvdPk:sum(packetBytes) 	13580737
attr interpolationmode  none
attr source  rcvdPk
attr title  "packets received, sum(packetBytes)"
statistic ExamTaskNetwork_no_CCTV.BrowsingLaptop[2].tcpApp[0] 	endToEndDelay:histogram
field count 31
field mean 8.064728138196
field stddev 6.5416184530266
field sum 250.00657228407
field sqrsum 3300.0181977827
field min 0.673992951107
field max 31.210900774882
attr interpolationmode  none
attr source  messageAge(rcvdPk)
attr title  "end-to-end delay, histogram"
attr unit  s
bin	-INF	0
bin	-14.594460960781	0
bin	-12.558667105862	0
bin	-10.522873250944	0
bin	-8.4870793960255	0
bin	-6.4512855411072	0
bin	-4.4154916861888	0
bin	-2.3796978312705	0
bin	-0.34390397635217	6
bin	1.6918898785662	2
bin	3.7276837334845	4
bin	5.7634775884028	6
bin	7.7992714433212	3
bin	9.8350652982395	2
bin	11.870859153158	3
bin	13.906653008076	2
bin	15.942446862995	2
bin	17.978240717913	0
bin	20.014034572831	0
bin	22.049828427749	0
bin	24.085622282668	0
bin	26.121416137586	0
bin	28.157209992504	0
bin	30.193003847423	1
bin	32.228797702341	0
bin	34.26459155726	0
bin	36.300385412178	0
bin	38.336179267096	0
bin	40.371973122015	0
bin	42.407766976933	0
bin	44.443560831851	0
bin	46.479354686769	0
scalar ExamTaskNetwork_no_CCTV.BrowsingLaptop[3].networkLayer.arp 	initiatedARPResolution:count 	8
attr title  "ARP initiated resolutions, count"
scalar ExamTaskNetwork_no_CCTV.BrowsingLaptop[3].networkLayer.arp 	sentReply:count 	1
attr title  "ARP replies sent, count"
scalar ExamTaskNetwork_no_CCTV.BrowsingLaptop[3].networkLayer.arp 	sentReq:count 	8
attr title  "ARP request sent, count"
scalar ExamTaskNetwork_no_CCTV.BrowsingLaptop[3].networkLayer.arp 	failedARPResolution:count 	0
attr title  "ARP failed resolutions, count"
scalar ExamTaskNetwork_no_CCTV.BrowsingLaptop[3].networkLayer.arp 	completedARPResolution:count 	38
attr title  "ARP completed resolutions, count"
scalar ExamTaskNetwork_no_CCTV.BrowsingLaptop[3].lo0.lo 	rcvdPkFromHL:count 	0
attr interpolationmode  none
attr source  packetReceivedFromUpper
attr title  "packets received from higher layer, count"
scalar ExamTaskNetwork_no_CCTV.BrowsingLaptop[3].lo0.lo 	rcvdPkFromHL:sum(packetBytes) 	0
attr interpolationmode  none
attr source  packetReceivedFromUpper
attr title  "packets received from higher layer, sum(packetBytes)"
scalar ExamTaskNetwork_no_CCTV.BrowsingLaptop[3].lo0.lo 	passedUpPk:count 	0
attr interpolationmode  none
attr source  packetSentToUpper
attr title  "packets passed to higher layer, count"
scalar ExamTaskNetwork_no_CCTV.BrowsingLaptop[3].lo0.lo 	passedUpPk:sum(packetBytes) 	0
attr interpolationmode  none
attr source  packetSentToUpper
attr title  "packets passed to higher layer, sum(packetBytes)"
scalar ExamTaskNetwork_no_CCTV.BrowsingLaptop[3].lo0.lo 	droppedPkBitError:count 	0
attr interpolationmode  none
attr source  dropPkBitError
attr title  "packets dropped/bit error, count"
scalar ExamTaskNetwork_no_CCTV.BrowsingLaptop[3].lo0.lo 	droppedPkBitError:sum(packetBytes) 	0
attr interpolationmode  none
attr source  dropPkBitError
attr title  "packets dropped/bit error, sum(packetBytes)"
scalar ExamTaskNetwork_no_CCTV.BrowsingLaptop[3].wlan[0].agent 	dropConfirm:count 	0
attr title  "dropped confirms, count"
scalar ExamTaskNetwork_no_CCTV.BrowsingLaptop[3].wlan[0].agent 	acceptConfirm:count 	54
attr title  "accepted confirms, count"
scalar ExamTaskNetwork_no_CCTV.BrowsingLaptop[3].wlan[0].agent 	sentRequest:count 	54
attr title  "sent requests, count"
scalar ExamTaskNetwork_no_CCTV.BrowsingLaptop[3].wlan[0].mgmt 	dropPkByQueue:count 	89
attr interpolationmode  none
attr source  dropPkByQueue
attr title  "packets dropped by queue, count"
scalar ExamTaskNetwork_no_CCTV.BrowsingLaptop[3].wlan[0].mgmt 	dropPkByQueue:sum(packetBytes) 	8722
attr interpolationmode  none
attr source  dropPkByQueue
attr title  "packets dropped by queue, sum(packetBytes)"
scalar ExamTaskNetwork_no_CCTV.BrowsingLaptop[3].wlan[0].mgmt 	dataQueueLen:max 	50
attr interpolationmode  sample-hold
attr title  "data queue length, max"
scalar ExamTaskNetwork_no_CCTV.BrowsingLaptop[3].wlan[0].mgmt 	dataQueueLen:timeavg 	0.014348991716661
attr interpolationmode  sample-hold
attr title  "data queue length, timeavg"
scalar ExamTaskNetwork_no_CCTV.BrowsingLaptop[3].wlan[0].mac 	"number of received packets" 	29283
scalar ExamTaskNetwork_no_CCTV.BrowsingLaptop[3].wlan[0].mac 	"number of collisions" 	52114
scalar ExamTaskNetwork_no_CCTV.BrowsingLaptop[3].wlan[0].mac 	"number of internal collisions" 	0
scalar ExamTaskNetwork_no_CCTV.BrowsingLaptop[3].wlan[0].mac 	"number of retry for AC 0" 	259
scalar ExamTaskNetwork_no_CCTV.BrowsingLaptop[3].wlan[0].mac 	"sent and received bits" 	12357424
scalar ExamTaskNetwork_no_CCTV.BrowsingLaptop[3].wlan[0].mac 	"sent packet within AC 0" 	15178
scalar ExamTaskNetwork_no_CCTV.BrowsingLaptop[3].wlan[0].mac 	"sent in TXOP " 	0
scalar ExamTaskNetwork_no_CCTV.BrowsingLaptop[3].wlan[0].mac 	"sentWithoutRetry AC 0" 	14968
scalar ExamTaskNetwork_no_CCTV.BrowsingLaptop[3].wlan[0].mac 	"numGivenUp AC 0" 	0
scalar ExamTaskNetwork_no_CCTV.BrowsingLaptop[3].wlan[0].mac 	"numDropped AC 0" 	0
scalar ExamTaskNetwork_no_CCTV.BrowsingLaptop[3].wlan[0].mac 	rcvdPkFromHL:count 	15196
attr interpolationmode  none
attr source  packetReceivedFromUpper
attr title  "packets received from higher layer, count"
scalar ExamTaskNetwork_no_CCTV.BrowsingLaptop[3].wlan[0].mac 	rcvdPkFromHL:sum(packetBytes) 	1544678
attr interpolationmode  none
attr source  packetReceivedFromUpper
attr title  "packets received from higher layer, sum(packetBytes)"
scalar ExamTaskNetwork_no_CCTV.BrowsingLaptop[3].wlan[0].mac 	passedUpPk:count 	38590
attr interpolationmode  none
attr source  packetSentToUpper
attr title  "packets passed to higher layer, count"
scalar ExamTaskNetwork_no_CCTV.BrowsingLaptop[3].wlan[0].mac 	passedUpPk:sum(packetBytes) 	24624169
attr interpolationmode  none
attr source  packetSentToUpper
attr title  "packets passed to higher layer, sum(packetBytes)"
scalar ExamTaskNetwork_no_CCTV.BrowsingLaptop[3].wlan[0].mac 	rcvdPkFromLL:count 	3439435
attr interpolationmode  none
attr source  packetReceivedFromLower
attr title  "packets received from lower layer, count"
scalar ExamTaskNetwork_no_CCTV.BrowsingLaptop[3].wlan[0].mac 	rcvdPkFromLL:sum(packetBytes) 	1368270753
attr interpolationmode  none
attr source  packetReceivedFromLower
attr title  "packets received from lower layer, sum(packetBytes)"
scalar ExamTaskNetwork_no_CCTV.BrowsingLaptop[3].wlan[0].mac 	sentDownPk:count 	44738
attr interpolationmode  none
attr source  packetSentToLower
attr title  "packets sent to lower layer, count"
scalar ExamTaskNetwork_no_CCTV.BrowsingLaptop[3].wlan[0].mac 	sentDownPk:sum(packetBytes) 	2021004
attr interpolationmode  none
attr source  packetSentToLower
attr title  "packets sent to lower layer, sum(packetBytes)"
scalar ExamTaskNetwork_no_CCTV.BrowsingLaptop[3].wlan[0].radio 	lossRate:min 	0
attr interpolationmode  backward-sample-hold
attr title  "packet loss rate, min"
scalar ExamTaskNetwork_no_CCTV.BrowsingLaptop[3].wlan[0].radio 	lossRate:max 	0.18
attr interpolationmode  backward-sample-hold
attr title  "packet loss rate, max"
scalar ExamTaskNetwork_no_CCTV.BrowsingLaptop[3].wlan[0].radio 	lossRate:timeavg 	0.014227024580565
attr interpolationmode  backward-sample-hold
attr title  "packet loss rate, timeavg"
statistic ExamTaskNetwork_no_CCTV.BrowsingLaptop[3].wlan[0].radio 	channelNo:histogram
field count 1
field mean 0
field stddev -nan
field sum 0
field sqrsum 0
field min 0
field max 0
attr interpolationmode  sample-hold
attr title  "channel no, histogram"
bin	-INF	0
bin	-0.5	0
bin	-0.46666666666667	0
bin	-0.43333333333333	0
bin	-0.4	0
bin	-0.36666666666667	0
bin	-0.33333333333333	0
bin	-0.3	0
bin	-0.26666666666667	0
bin	-0.23333333333333	0
bin	-0.2	0
bin	-0.16666666666667	0
bin	-0.13333333333333	0
bin	-0.1	0
bin	-0.066666666666667	0
bin	-0.033333333333333	0
bin	0	1
bin	0.033333333333333	0
bin	0.066666666666667	0
bin	0.1	0
bin	0.13333333333333	0
bin	0.16666666666667	0
bin	0.2	0
bin	0.23333333333333	0
bin	0.26666666666667	0
bin	0.3	0
bin	0.33333333333333	0
bin	0.36666666666667	0
bin	0.4	0
bin	0.43333333333333	0
bin	0.46666666666667	0
bin	0.5	0
scalar ExamTaskNetwork_no_CCTV.BrowsingLaptop[3].wlan[0].radio 	radioState:count 	6968666
attr interpolationmode  sample-hold
attr title  "radio state (enum), count"
scalar ExamTaskNetwork_no_CCTV.BrowsingLaptop[3].wlan[0].radio 	bitrate:min 	54000000
attr interpolationmode  sample-hold
attr title  "tx bitrate, min"
attr unit  bps
scalar ExamTaskNetwork_no_CCTV.BrowsingLaptop[3].wlan[0].radio 	bitrate:max 	54000000
attr interpolationmode  sample-hold
attr title  "tx bitrate, max"
attr unit  bps
scalar ExamTaskNetwork_no_CCTV.BrowsingLaptop[3].wlan[0].radio 	bitrate:timeavg 	54000000
attr interpolationmode  sample-hold
attr title  "tx bitrate, timeavg"
attr unit  bps
scalar ExamTaskNetwork_no_CCTV.BrowsingLaptop[3].tcpApp[0] 	numActiveSessions:max 	1
attr interpolationmode  sample-hold
attr source  sum(connect)
attr title  "number of active sessions, max"
scalar ExamTaskNetwork_no_CCTV.BrowsingLaptop[3].tcpApp[0] 	numActiveSessions:timeavg 	0.32316237001462
attr interpolationmode  sample-hold
attr source  sum(connect)
attr title  "number of active sessions, timeavg"
scalar ExamTaskNetwork_no_CCTV.BrowsingLaptop[3].tcpApp[0] 	numSessions:last 	35
attr source  sum(connect+1)/2
attr title  "total number of sessions, last"
scalar ExamTaskNetwork_no_CCTV.BrowsingLaptop[3].tcpApp[0] 	sentPk:count 	35
attr interpolationmode  none
attr source  sentPk
attr title  "packets sent, count"
scalar ExamTaskNetwork_no_CCTV.BrowsingLaptop[3].tcpApp[0] 	sentPk:sum(packetBytes) 	286720
attr interpolationmode  none
attr source  sentPk
attr title  "packets sent, sum(packetBytes)"
scalar ExamTaskNetwork_no_CCTV.BrowsingLaptop[3].tcpApp[0] 	rcvdPk:count 	35
attr interpolationmode  none
attr source  rcvdPk
attr title  "packets received, count"
scalar ExamTaskNetwork_no_CCTV.BrowsingLaptop[3].tcpApp[0] 	rcvdPk:sum(packetBytes) 	20257647
attr interpolationmode  none
attr source  rcvdPk
attr title  "packets received, sum(packetBytes)"
statistic ExamTaskNetwork_no_CCTV.BrowsingLaptop[3].tcpApp[0] 	endToEndDelay:histogram
field count 35
field mean 8.9394919229275
field stddev 7.644101262191
field sum 312.88221730246
field sqrsum 4783.7057140284
field min 0.995970597762
field max 36.727633316179
attr interpolationmode  none
attr source  messageAge(rcvdPk)
attr title  "end-to-end delay, histogram"
attr unit  s
bin	-INF	0
bin	-16.869860761446	0
bin	-14.487749913552	0
bin	-12.105639065658	0
bin	-9.7235282177631	0
bin	-7.3414173698686	0
bin	-4.9593065219742	0
bin	-2.5771956740797	0
bin	-0.19508482618523	4
bin	2.1870260217092	8
bin	4.5691368696037	7
bin	6.9512477174982	4
bin	9.3333585653926	4
bin	11.715469413287	1
bin	14.097580261182	3
bin	16.479691109076	0
bin	18.861801956971	2
bin	21.243912804865	0
bin	23.626023652759	0
bin	26.008134500654	1
bin	28.390245348548	0
bin	30.772356196443	0
bin	33.154467044337	0
bin	35.536577892232	1
bin	37.918688740126	0
bin	40.300799588021	0
bin	42.682910435915	0
bin	45.06502128381	0
bin	47.447132131704	0
bin	49.829242979599	0
bin	52.211353827493	0
bin	54.593464675388	0
scalar ExamTaskNetwork_no_CCTV.BrowsingLaptop[4].networkLayer.arp 	initiatedARPResolution:count 	8
attr title  "ARP initiated resolutions, count"
scalar ExamTaskNetwork_no_CCTV.BrowsingLaptop[4].networkLayer.arp 	sentReply:count 	1
attr title  "ARP replies sent, count"
scalar ExamTaskNetwork_no_CCTV.BrowsingLaptop[4].networkLayer.arp 	sentReq:count 	8
attr title  "ARP request sent, count"
scalar ExamTaskNetwork_no_CCTV.BrowsingLaptop[4].networkLayer.arp 	failedARPResolution:count 	0
attr title  "ARP failed resolutions, count"
scalar ExamTaskNetwork_no_CCTV.BrowsingLaptop[4].networkLayer.arp 	completedARPResolution:count 	37
attr title  "ARP completed resolutions, count"
scalar ExamTaskNetwork_no_CCTV.BrowsingLaptop[4].lo0.lo 	rcvdPkFromHL:count 	0
attr interpolationmode  none
attr source  packetReceivedFromUpper
attr title  "packets received from higher layer, count"
scalar ExamTaskNetwork_no_CCTV.BrowsingLaptop[4].lo0.lo 	rcvdPkFromHL:sum(packetBytes) 	0
attr interpolationmode  none
attr source  packetReceivedFromUpper
attr title  "packets received from higher layer, sum(packetBytes)"
scalar ExamTaskNetwork_no_CCTV.BrowsingLaptop[4].lo0.lo 	passedUpPk:count 	0
attr interpolationmode  none
attr source  packetSentToUpper
attr title  "packets passed to higher layer, count"
scalar ExamTaskNetwork_no_CCTV.BrowsingLaptop[4].lo0.lo 	passedUpPk:sum(packetBytes) 	0
attr interpolationmode  none
attr source  packetSentToUpper
attr title  "packets passed to higher layer, sum(packetBytes)"
scalar ExamTaskNetwork_no_CCTV.BrowsingLaptop[4].lo0.lo 	droppedPkBitError:count 	0
attr interpolationmode  none
attr source  dropPkBitError
attr title  "packets dropped/bit error, count"
scalar ExamTaskNetwork_no_CCTV.BrowsingLaptop[4].lo0.lo 	droppedPkBitError:sum(packetBytes) 	0
attr interpolationmode  none
attr source  dropPkBitError
attr title  "packets dropped/bit error, sum(packetBytes)"
scalar ExamTaskNetwork_no_CCTV.BrowsingLaptop[4].wlan[0].agent 	dropConfirm:count 	0
attr title  "dropped confirms, count"
scalar ExamTaskNetwork_no_CCTV.BrowsingLaptop[4].wlan[0].agent 	acceptConfirm:count 	54
attr title  "accepted confirms, count"
scalar ExamTaskNetwork_no_CCTV.BrowsingLaptop[4].wlan[0].agent 	sentRequest:count 	54
attr title  "sent requests, count"
scalar ExamTaskNetwork_no_CCTV.BrowsingLaptop[4].wlan[0].mgmt 	dropPkByQueue:count 	0
attr interpolationmode  none
attr source  dropPkByQueue
attr title  "packets dropped by queue, count"
scalar ExamTaskNetwork_no_CCTV.BrowsingLaptop[4].wlan[0].mgmt 	dropPkByQueue:sum(packetBytes) 	0
attr interpolationmode  none
attr source  dropPkByQueue
attr title  "packets dropped by queue, sum(packetBytes)"
scalar ExamTaskNetwork_no_CCTV.BrowsingLaptop[4].wlan[0].mgmt 	dataQueueLen:max 	5
attr interpolationmode  sample-hold
attr title  "data queue length, max"
scalar ExamTaskNetwork_no_CCTV.BrowsingLaptop[4].wlan[0].mgmt 	dataQueueLen:timeavg 	1.8835489514515e-05
attr interpolationmode  sample-hold
attr title  "data queue length, timeavg"
scalar ExamTaskNetwork_no_CCTV.BrowsingLaptop[4].wlan[0].mac 	"number of received packets" 	28933
scalar ExamTaskNetwork_no_CCTV.BrowsingLaptop[4].wlan[0].mac 	"number of collisions" 	52241
scalar ExamTaskNetwork_no_CCTV.BrowsingLaptop[4].wlan[0].mac 	"number of internal collisions" 	0
scalar ExamTaskNetwork_no_CCTV.BrowsingLaptop[4].wlan[0].mac 	"number of retry for AC 0" 	100
scalar ExamTaskNetwork_no_CCTV.BrowsingLaptop[4].wlan[0].mac 	"sent and received bits" 	11384880
scalar ExamTaskNetwork_no_CCTV.BrowsingLaptop[4].wlan[0].mac 	"sent packet within AC 0" 	14141
scalar ExamTaskNetwork_no_CCTV.BrowsingLaptop[4].wlan[0].mac 	"sent in TXOP " 	0
scalar ExamTaskNetwork_no_CCTV.BrowsingLaptop[4].wlan[0].mac 	"sentWithoutRetry AC 0" 	14072
scalar ExamTaskNetwork_no_CCTV.BrowsingLaptop[4].wlan[0].mac 	"numGivenUp AC 0" 	0
scalar ExamTaskNetwork_no_CCTV.BrowsingLaptop[4].wlan[0].mac 	"numDropped AC 0" 	0
scalar ExamTaskNetwork_no_CCTV.BrowsingLaptop[4].wlan[0].mac 	rcvdPkFromHL:count 	14159
attr interpolationmode  none
attr source  packetReceivedFromUpper
attr title  "packets received from higher layer, count"
scalar ExamTaskNetwork_no_CCTV.BrowsingLaptop[4].wlan[0].mac 	rcvdPkFromHL:sum(packetBytes) 	1423110
attr interpolationmode  none
attr source  packetReceivedFromUpper
attr title  "packets received from higher layer, sum(packetBytes)"
scalar ExamTaskNetwork_no_CCTV.BrowsingLaptop[4].wlan[0].mac 	passedUpPk:count 	38239
attr interpolationmode  none
attr source  packetSentToUpper
attr title  "packets passed to higher layer, count"
scalar ExamTaskNetwork_no_CCTV.BrowsingLaptop[4].wlan[0].mac 	passedUpPk:sum(packetBytes) 	24648427
attr interpolationmode  none
attr source  packetSentToUpper
attr title  "packets passed to higher layer, sum(packetBytes)"
scalar ExamTaskNetwork_no_CCTV.BrowsingLaptop[4].wlan[0].mac 	rcvdPkFromLL:count 	3440981
attr interpolationmode  none
attr source  packetReceivedFromLower
attr title  "packets received from lower layer, count"
scalar ExamTaskNetwork_no_CCTV.BrowsingLaptop[4].wlan[0].mac 	rcvdPkFromLL:sum(packetBytes) 	1368492731
attr interpolationmode  none
attr source  packetReceivedFromLower
attr title  "packets received from lower layer, sum(packetBytes)"
scalar ExamTaskNetwork_no_CCTV.BrowsingLaptop[4].wlan[0].mac 	sentDownPk:count 	43192
attr interpolationmode  none
attr source  packetSentToLower
attr title  "packets sent to lower layer, count"
scalar ExamTaskNetwork_no_CCTV.BrowsingLaptop[4].wlan[0].mac 	sentDownPk:sum(packetBytes) 	1878890
attr interpolationmode  none
attr source  packetSentToLower
attr title  "packets sent to lower layer, sum(packetBytes)"
scalar ExamTaskNetwork_no_CCTV.BrowsingLaptop[4].wlan[0].radio 	lossRate:min 	0
attr interpolationmode  backward-sample-hold
attr title  "packet loss rate, min"
scalar ExamTaskNetwork_no_CCTV.BrowsingLaptop[4].wlan[0].radio 	lossRate:max 	0.2
attr interpolationmode  backward-sample-hold
attr title  "packet loss rate, max"
scalar ExamTaskNetwork_no_CCTV.BrowsingLaptop[4].wlan[0].radio 	lossRate:timeavg 	0.014235826756544
attr interpolationmode  backward-sample-hold
attr title  "packet loss rate, timeavg"
statistic ExamTaskNetwork_no_CCTV.BrowsingLaptop[4].wlan[0].radio 	channelNo:histogram
field count 1
field mean 0
field stddev -nan
field sum 0
field sqrsum 0
field min 0
field max 0
attr interpolationmode  sample-hold
attr title  "channel no, histogram"
bin	-INF	0
bin	-0.5	0
bin	-0.46666666666667	0
bin	-0.43333333333333	0
bin	-0.4	0
bin	-0.36666666666667	0
bin	-0.33333333333333	0
bin	-0.3	0
bin	-0.26666666666667	0
bin	-0.23333333333333	0
bin	-0.2	0
bin	-0.16666666666667	0
bin	-0.13333333333333	0
bin	-0.1	0
bin	-0.066666666666667	0
bin	-0.033333333333333	0
bin	0	1
bin	0.033333333333333	0
bin	0.066666666666667	0
bin	0.1	0
bin	0.13333333333333	0
bin	0.16666666666667	0
bin	0.2	0
bin	0.23333333333333	0
bin	0.26666666666667	0
bin	0.3	0
bin	0.33333333333333	0
bin	0.36666666666667	0
bin	0.4	0
bin	0.43333333333333	0
bin	0.46666666666667	0
bin	0.5	0
scalar ExamTaskNetwork_no_CCTV.BrowsingLaptop[4].wlan[0].radio 	radioState:count 	6968466
attr interpolationmode  sample-hold
attr title  "radio state (enum), count"
scalar ExamTaskNetwork_no_CCTV.BrowsingLaptop[4].wlan[0].radio 	bitrate:min 	54000000
attr interpolationmode  sample-hold
attr title  "tx bitrate, min"
attr unit  bps
scalar ExamTaskNetwork_no_CCTV.BrowsingLaptop[4].wlan[0].radio 	bitrate:max 	54000000
attr interpolationmode  sample-hold
attr title  "tx bitrate, max"
attr unit  bps
scalar ExamTaskNetwork_no_CCTV.BrowsingLaptop[4].wlan[0].radio 	bitrate:timeavg 	54000000
attr interpolationmode  sample-hold
attr title  "tx bitrate, timeavg"
attr unit  bps
scalar ExamTaskNetwork_no_CCTV.BrowsingLaptop[4].tcpApp[0] 	numActiveSessions:max 	1
attr interpolationmode  sample-hold
attr source  sum(connect)
attr title  "number of active sessions, max"
scalar ExamTaskNetwork_no_CCTV.BrowsingLaptop[4].tcpApp[0] 	numActiveSessions:timeavg 	0.39615868204992
attr interpolationmode  sample-hold
attr source  sum(connect)
attr title  "number of active sessions, timeavg"
scalar ExamTaskNetwork_no_CCTV.BrowsingLaptop[4].tcpApp[0] 	numSessions:last 	32
attr source  sum(connect+1)/2
attr title  "total number of sessions, last"
scalar ExamTaskNetwork_no_CCTV.BrowsingLaptop[4].tcpApp[0] 	sentPk:count 	32
attr interpolationmode  none
attr source  sentPk
attr title  "packets sent, count"
scalar ExamTaskNetwork_no_CCTV.BrowsingLaptop[4].tcpApp[0] 	sentPk:sum(packetBytes) 	262144
attr interpolationmode  none
attr source  sentPk
attr title  "packets sent, sum(packetBytes)"
scalar ExamTaskNetwork_no_CCTV.BrowsingLaptop[4].tcpApp[0] 	rcvdPk:count 	32
attr interpolationmode  none
attr source  rcvdPk
attr title  "packets received, count"
scalar ExamTaskNetwork_no_CCTV.BrowsingLaptop[4].tcpApp[0] 	rcvdPk:sum(packetBytes) 	19157672
attr interpolationmode  none
attr source  rcvdPk
attr title  "packets received, sum(packetBytes)"
statistic ExamTaskNetwork_no_CCTV.BrowsingLaptop[4].tcpApp[0] 	endToEndDelay:histogram
field count 32
field mean 12.062246988185
field stddev 8.2798386471721
field sum 385.99190362193
field sqrsum 6781.1572456468
field min 0.458821993863
field max 39.28957227276
attr interpolationmode  none
attr source  messageAge(rcvdPk)
attr title  "end-to-end delay, histogram"
attr unit  s
bin	-INF	0
bin	-18.956553145586	0
bin	-16.367836460326	0
bin	-13.779119775066	0
bin	-11.190403089806	0
bin	-8.6016864045463	0
bin	-6.0129697192865	0
bin	-3.4242530340267	0
bin	-0.8355363487669	1
bin	1.7531803364929	2
bin	4.3418970217527	7
bin	6.9306137070125	5
bin	9.5193303922723	3
bin	12.108047077532	5
bin	14.696763762792	3
bin	17.285480448052	1
bin	19.874197133311	2
bin	22.462913818571	0
bin	25.051630503831	1
bin	27.640347189091	1
bin	30.229063874351	0
bin	32.81778055961	0
bin	35.40649724487	0
bin	37.99521393013	1
bin	40.58393061539	0
bin	43.17264730065	0
bin	45.761363985909	0
bin	48.350080671169	0
bin	50.938797356429	0
bin	53.527514041689	0
bin	56.116230726949	0
bin	58.704947412208	0
scalar ExamTaskNetwork_no_CCTV.BrowsingLaptop[5].networkLayer.arp 	initiatedARPResolution:count 	8
attr title  "ARP initiated resolutions, count"
scalar ExamTaskNetwork_no_CCTV.BrowsingLaptop[5].networkLayer.arp 	sentReply:count 	2
attr title  "ARP replies sent, count"
scalar ExamTaskNetwork_no_CCTV.BrowsingLaptop[5].networkLayer.arp 	sentReq:count 	8
attr title  "ARP request sent, count"
scalar ExamTaskNetwork_no_CCTV.BrowsingLaptop[5].networkLayer.arp 	failedARPResolution:count 	0
attr title  "ARP failed resolutions, count"
scalar ExamTaskNetwork_no_CCTV.BrowsingLaptop[5].networkLayer.arp 	completedARPResolution:count 	39
attr title  "ARP completed resolutions, count"
scalar ExamTaskNetwork_no_CCTV.BrowsingLaptop[5].lo0.lo 	rcvdPkFromHL:count 	0
attr interpolationmode  none
attr source  packetReceivedFromUpper
attr title  "packets received from higher layer, count"
scalar ExamTaskNetwork_no_CCTV.BrowsingLaptop[5].lo0.lo 	rcvdPkFromHL:sum(packetBytes) 	0
attr interpolationmode  none
attr source  packetReceivedFromUpper
attr title  "packets received from higher layer, sum(packetBytes)"
scalar ExamTaskNetwork_no_CCTV.BrowsingLaptop[5].lo0.lo 	passedUpPk:count 	0
attr interpolationmode  none
attr source  packetSentToUpper
attr title  "packets passed to higher layer, count"
scalar ExamTaskNetwork_no_CCTV.BrowsingLaptop[5].lo0.lo 	passedUpPk:sum(packetBytes) 	0
attr interpolationmode  none
attr source  packetSentToUpper
attr title  "packets passed to higher layer, sum(packetBytes)"
scalar ExamTaskNetwork_no_CCTV.BrowsingLaptop[5].lo0.lo 	droppedPkBitError:count 	0
attr interpolationmode  none
attr source  dropPkBitError
attr title  "packets dropped/bit error, count"
scalar ExamTaskNetwork_no_CCTV.BrowsingLaptop[5].lo0.lo 	droppedPkBitError:sum(packetBytes) 	0
attr interpolationmode  none
attr source  dropPkBitError
attr title  "packets dropped/bit error, sum(packetBytes)"
scalar ExamTaskNetwork_no_CCTV.BrowsingLaptop[5].wlan[0].agent 	dropConfirm:count 	0
attr title  "dropped confirms, count"
scalar ExamTaskNetwork_no_CCTV.BrowsingLaptop[5].wlan[0].agent 	acceptConfirm:count 	54
attr title  "accepted confirms, count"
scalar ExamTaskNetwork_no_CCTV.BrowsingLaptop[5].wlan[0].agent 	sentRequest:count 	54
attr title  "sent requests, count"
scalar ExamTaskNetwork_no_CCTV.BrowsingLaptop[5].wlan[0].mgmt 	dropPkByQueue:count 	596
attr interpolationmode  none
attr source  dropPkByQueue
attr title  "packets dropped by queue, count"
scalar ExamTaskNetwork_no_CCTV.BrowsingLaptop[5].wlan[0].mgmt 	dropPkByQueue:sum(packetBytes) 	58356
attr interpolationmode  none
attr source  dropPkByQueue
attr title  "packets dropped by queue, sum(packetBytes)"
scalar ExamTaskNetwork_no_CCTV.BrowsingLaptop[5].wlan[0].mgmt 	dataQueueLen:max 	50
attr interpolationmode  sample-hold
attr title  "data queue length, max"
scalar ExamTaskNetwork_no_CCTV.BrowsingLaptop[5].wlan[0].mgmt 	dataQueueLen:timeavg 	0.013763780120266
attr interpolationmode  sample-hold
attr title  "data queue length, timeavg"
scalar ExamTaskNetwork_no_CCTV.BrowsingLaptop[5].wlan[0].mac 	"number of received packets" 	33057
scalar ExamTaskNetwork_no_CCTV.BrowsingLaptop[5].wlan[0].mac 	"number of collisions" 	52095
scalar ExamTaskNetwork_no_CCTV.BrowsingLaptop[5].wlan[0].mac 	"number of internal collisions" 	0
scalar ExamTaskNetwork_no_CCTV.BrowsingLaptop[5].wlan[0].mac 	"number of retry for AC 0" 	266
scalar ExamTaskNetwork_no_CCTV.BrowsingLaptop[5].wlan[0].mac 	"sent and received bits" 	13278640
scalar ExamTaskNetwork_no_CCTV.BrowsingLaptop[5].wlan[0].mac 	"sent packet within AC 0" 	16824
scalar ExamTaskNetwork_no_CCTV.BrowsingLaptop[5].wlan[0].mac 	"sent in TXOP " 	0
scalar ExamTaskNetwork_no_CCTV.BrowsingLaptop[5].wlan[0].mac 	"sentWithoutRetry AC 0" 	16616
scalar ExamTaskNetwork_no_CCTV.BrowsingLaptop[5].wlan[0].mac 	"numGivenUp AC 0" 	0
scalar ExamTaskNetwork_no_CCTV.BrowsingLaptop[5].wlan[0].mac 	"numDropped AC 0" 	0
scalar ExamTaskNetwork_no_CCTV.BrowsingLaptop[5].wlan[0].mac 	rcvdPkFromHL:count 	16842
attr interpolationmode  none
attr source  packetReceivedFromUpper
attr title  "packets received from higher layer, count"
scalar ExamTaskNetwork_no_CCTV.BrowsingLaptop[5].wlan[0].mac 	rcvdPkFromHL:sum(packetBytes) 	1659830
attr interpolationmode  none
attr source  packetReceivedFromUpper
attr title  "packets received from higher layer, sum(packetBytes)"
scalar ExamTaskNetwork_no_CCTV.BrowsingLaptop[5].wlan[0].mac 	passedUpPk:count 	42364
attr interpolationmode  none
attr source  packetSentToUpper
attr title  "packets passed to higher layer, count"
scalar ExamTaskNetwork_no_CCTV.BrowsingLaptop[5].wlan[0].mac 	passedUpPk:sum(packetBytes) 	28086106
attr interpolationmode  none
attr source  packetSentToUpper
attr title  "packets passed to higher layer, sum(packetBytes)"
scalar ExamTaskNetwork_no_CCTV.BrowsingLaptop[5].wlan[0].mac 	rcvdPkFromLL:count 	3434008
attr interpolationmode  none
attr source  packetReceivedFromLower
attr title  "packets received from lower layer, count"
scalar ExamTaskNetwork_no_CCTV.BrowsingLaptop[5].wlan[0].mac 	rcvdPkFromLL:sum(packetBytes) 	1368082437
attr interpolationmode  none
attr source  packetReceivedFromLower
attr title  "packets received from lower layer, sum(packetBytes)"
scalar ExamTaskNetwork_no_CCTV.BrowsingLaptop[5].wlan[0].mac 	sentDownPk:count 	50165
attr interpolationmode  none
attr source  packetSentToLower
attr title  "packets sent to lower layer, count"
scalar ExamTaskNetwork_no_CCTV.BrowsingLaptop[5].wlan[0].mac 	sentDownPk:sum(packetBytes) 	2194928
attr interpolationmode  none
attr source  packetSentToLower
attr title  "packets sent to lower layer, sum(packetBytes)"
scalar ExamTaskNetwork_no_CCTV.BrowsingLaptop[5].wlan[0].radio 	lossRate:min 	0
attr interpolationmode  backward-sample-hold
attr title  "packet loss rate, min"
scalar ExamTaskNetwork_no_CCTV.BrowsingLaptop[5].wlan[0].radio 	lossRate:max 	0.18
attr interpolationmode  backward-sample-hold
attr title  "packet loss rate, max"
scalar ExamTaskNetwork_no_CCTV.BrowsingLaptop[5].wlan[0].radio 	lossRate:timeavg 	0.014225068489383
attr interpolationmode  backward-sample-hold
attr title  "packet loss rate, timeavg"
statistic ExamTaskNetwork_no_CCTV.BrowsingLaptop[5].wlan[0].radio 	channelNo:histogram
field count 1
field mean 0
field stddev -nan
field sum 0
field sqrsum 0
field min 0
field max 0
attr interpolationmode  sample-hold
attr title  "channel no, histogram"
bin	-INF	0
bin	-0.5	0
bin	-0.46666666666667	0
bin	-0.43333333333333	0
bin	-0.4	0
bin	-0.36666666666667	0
bin	-0.33333333333333	0
bin	-0.3	0
bin	-0.26666666666667	0
bin	-0.23333333333333	0
bin	-0.2	0
bin	-0.16666666666667	0
bin	-0.13333333333333	0
bin	-0.1	0
bin	-0.066666666666667	0
bin	-0.033333333333333	0
bin	0	1
bin	0.033333333333333	0
bin	0.066666666666667	0
bin	0.1	0
bin	0.13333333333333	0
bin	0.16666666666667	0
bin	0.2	0
bin	0.23333333333333	0
bin	0.26666666666667	0
bin	0.3	0
bin	0.33333333333333	0
bin	0.36666666666667	0
bin	0.4	0
bin	0.43333333333333	0
bin	0.46666666666667	0
bin	0.5	0
scalar ExamTaskNetwork_no_CCTV.BrowsingLaptop[5].wlan[0].radio 	radioState:count 	6968707
attr interpolationmode  sample-hold
attr title  "radio state (enum), count"
scalar ExamTaskNetwork_no_CCTV.BrowsingLaptop[5].wlan[0].radio 	bitrate:min 	54000000
attr interpolationmode  sample-hold
attr title  "tx bitrate, min"
attr unit  bps
scalar ExamTaskNetwork_no_CCTV.BrowsingLaptop[5].wlan[0].radio 	bitrate:max 	54000000
attr interpolationmode  sample-hold
attr title  "tx bitrate, max"
attr unit  bps
scalar ExamTaskNetwork_no_CCTV.BrowsingLaptop[5].wlan[0].radio 	bitrate:timeavg 	54000000
attr interpolationmode  sample-hold
attr title  "tx bitrate, timeavg"
attr unit  bps
scalar ExamTaskNetwork_no_CCTV.BrowsingLaptop[5].tcpApp[0] 	numActiveSessions:max 	1
attr interpolationmode  sample-hold
attr source  sum(connect)
attr title  "number of active sessions, max"
scalar ExamTaskNetwork_no_CCTV.BrowsingLaptop[5].tcpApp[0] 	numActiveSessions:timeavg 	0.3965192631771
attr interpolationmode  sample-hold
attr source  sum(connect)
attr title  "number of active sessions, timeavg"
scalar ExamTaskNetwork_no_CCTV.BrowsingLaptop[5].tcpApp[0] 	numSessions:last 	33
attr source  sum(connect+1)/2
attr title  "total number of sessions, last"
scalar ExamTaskNetwork_no_CCTV.BrowsingLaptop[5].tcpApp[0] 	sentPk:count 	33
attr interpolationmode  none
attr source  sentPk
attr title  "packets sent, count"
scalar ExamTaskNetwork_no_CCTV.BrowsingLaptop[5].tcpApp[0] 	sentPk:sum(packetBytes) 	270336
attr interpolationmode  none
attr source  sentPk
attr title  "packets sent, sum(packetBytes)"
scalar ExamTaskNetwork_no_CCTV.BrowsingLaptop[5].tcpApp[0] 	rcvdPk:count 	33
attr interpolationmode  none
attr source  rcvdPk
attr title  "packets received, count"
scalar ExamTaskNetwork_no_CCTV.BrowsingLaptop[5].tcpApp[0] 	rcvdPk:sum(packetBytes) 	21586042
attr interpolationmode  none
attr source  rcvdPk
attr title  "packets received, sum(packetBytes)"
statistic ExamTaskNetwork_no_CCTV.BrowsingLaptop[5].tcpApp[0] 	endToEndDelay:histogram
field count 33
field mean 11.616709687545
field stddev 8.8892581104735
field sum 383.35141968899
field sqrsum 6981.8872629832
field min 0.413205633981
field max 37.747148285171
attr interpolationmode  none
attr source  messageAge(rcvdPk)
attr title  "end-to-end delay, histogram"
attr unit  s
bin	-INF	0
bin	-18.253765691614	0
bin	-15.764836181535	0
bin	-13.275906671455	0
bin	-10.786977161376	0
bin	-8.2980476512967	0
bin	-5.8091181412173	0
bin	-3.320188631138	0
bin	-0.83125912105867	3
bin	1.6576703890207	3
bin	4.1465998991	5
bin	6.6355294091793	5
bin	9.1244589192587	4
bin	11.613388429338	2
bin	14.102317939417	2
bin	16.591247449497	4
bin	19.080176959576	2
[...]
scalar ExamTaskNetwork_no_CCTV.MainRouter.eth[1].mac 	"frames/sec rcvd" 	24.979997451689
scalar ExamTaskNetwork_no_CCTV.MainRouter.eth[1].mac 	"bits/sec sent" 	286640.57875863
scalar ExamTaskNetwork_no_CCTV.MainRouter.eth[1].mac 	"bits/sec rcvd" 	288780.65854031
scalar ExamTaskNetwork_no_CCTV.MainRouter.eth[1].mac 	"rx channel idle (%)" 	99.709620621623
scalar ExamTaskNetwork_no_CCTV.MainRouter.eth[1].mac 	"rx channel utilization (%)" 	0.29037937837722
scalar ExamTaskNetwork_no_CCTV.MainRouter.eth[1].mac 	rxPkFromHL:count 	24795
attr interpolationmode  none
attr source  rxPkFromHL
attr title  "packet bytes from higher layer, count"
scalar ExamTaskNetwork_no_CCTV.MainRouter.eth[1].mac 	rxPkFromHL:sum(packetBytes) 	35830076
attr interpolationmode  none
attr source  rxPkFromHL
attr title  "packet bytes from higher layer, sum(packetBytes)"
scalar ExamTaskNetwork_no_CCTV.MainRouter.eth[1].mac 	rxPausePkUnits:count 	0
attr interpolationmode  none
attr title  "pause units received, count"
scalar ExamTaskNetwork_no_CCTV.MainRouter.eth[1].mac 	rxPausePkUnits:sum 	0
attr interpolationmode  none
attr title  "pause units received, sum"
scalar ExamTaskNetwork_no_CCTV.MainRouter.eth[1].mac 	txPausePkUnits:count 	0
attr interpolationmode  none
attr title  "pause units sent, count"
scalar ExamTaskNetwork_no_CCTV.MainRouter.eth[1].mac 	txPausePkUnits:sum 	0
attr interpolationmode  none
attr title  "pause units sent, sum"
scalar ExamTaskNetwork_no_CCTV.MainRouter.eth[1].mac 	txPk:count 	24795
attr interpolationmode  none
attr source  txPk
attr title  "packets transmitted, count"
scalar ExamTaskNetwork_no_CCTV.MainRouter.eth[1].mac 	txPk:sum(packetBytes) 	35830076
attr interpolationmode  none
attr source  txPk
attr title  "packets transmitted, sum(packetBytes)"
scalar ExamTaskNetwork_no_CCTV.MainRouter.eth[1].mac 	droppedPkNotForUs:count 	0
attr interpolationmode  none
attr source  dropPkNotForUs
attr title  "packets dropped/not for us, count"
scalar ExamTaskNetwork_no_CCTV.MainRouter.eth[1].mac 	droppedPkNotForUs:sum(packetBytes) 	0
attr interpolationmode  none
attr source  dropPkNotForUs
attr title  "packets dropped/not for us, sum(packetBytes)"
scalar ExamTaskNetwork_no_CCTV.MainRouter.eth[1].mac 	passedUpPk:count 	24980
attr interpolationmode  none
attr source  packetSentToUpper
attr title  "packets passed to higher layer, count"
scalar ExamTaskNetwork_no_CCTV.MainRouter.eth[1].mac 	passedUpPk:sum(packetBytes) 	36097586
attr interpolationmode  none
attr source  packetSentToUpper
attr title  "packets passed to higher layer, sum(packetBytes)"
scalar ExamTaskNetwork_no_CCTV.MainRouter.eth[1].mac 	droppedPkBitError:count 	0
attr interpolationmode  none
attr source  dropPkBitError
attr title  "packets dropped/bit error, count"
scalar ExamTaskNetwork_no_CCTV.MainRouter.eth[1].mac 	droppedPkBitError:sum(packetBytes) 	0
attr interpolationmode  none
attr source  dropPkBitError
attr title  "packets dropped/bit error, sum(packetBytes)"
scalar ExamTaskNetwork_no_CCTV.MainRouter.eth[1].mac 	droppedPkIfaceDown:count 	0
attr interpolationmode  none
attr source  dropPkIfaceDown
attr title  "packets dropped/interface down, count"
scalar ExamTaskNetwork_no_CCTV.MainRouter.eth[1].mac 	droppedPkIfaceDown:sum(packetBytes) 	0
attr interpolationmode  none
attr source  dropPkIfaceDown
attr title  "packets dropped/interface down, sum(packetBytes)"
scalar ExamTaskNetwork_no_CCTV.MainRouter.eth[1].mac 	rxPkOk:count 	24980
attr interpolationmode  none
attr source  rxPkOk
attr title  "packets received OK, count"
scalar ExamTaskNetwork_no_CCTV.MainRouter.eth[1].mac 	rxPkOk:sum(packetBytes) 	36097586
attr interpolationmode  none
attr source  rxPkOk
attr title  "packets received OK, sum(packetBytes)"
scalar ExamTaskNetwork_no_CCTV.MainRouter.eth[1].encap 	pauseSent:count 	0
attr title  "pause sent, count"
scalar ExamTaskNetwork_no_CCTV.MainRouter.eth[1].encap 	pauseSent:sum 	0
attr title  "pause sent, sum"
scalar ExamTaskNetwork_no_CCTV.MainRouter.eth[1].encap 	decapPk:count 	24980
attr interpolationmode  none
attr source  decapPk
attr title  "packets decapsulated, count"
scalar ExamTaskNetwork_no_CCTV.MainRouter.eth[1].encap 	decapPk:sum(packetBytes) 	35647640
attr interpolationmode  none
attr source  decapPk
attr title  "packets decapsulated, sum(packetBytes)"
scalar ExamTaskNetwork_no_CCTV.MainRouter.eth[1].encap 	encapPk:count 	24795
attr interpolationmode  none
attr source  encapPk
attr title  "packets encapsulated, count"
scalar ExamTaskNetwork_no_CCTV.MainRouter.eth[1].encap 	encapPk:sum(packetBytes) 	35383460
attr interpolationmode  none
attr source  encapPk
attr title  "packets encapsulated, sum(packetBytes)"
scalar ExamTaskNetwork_no_CCTV.MainRouter.ppp[0].outputHook[0] 	duration 	1000.0001020141
scalar ExamTaskNetwork_no_CCTV.MainRouter.ppp[0].outputHook[0] 	"total packets" 	1092282
scalar ExamTaskNetwork_no_CCTV.MainRouter.ppp[0].outputHook[0] 	"total bits" 	4065269896
scalar ExamTaskNetwork_no_CCTV.MainRouter.ppp[0].outputHook[0] 	"avg throughput (bit/s)" 	4065269.4812854
scalar ExamTaskNetwork_no_CCTV.MainRouter.ppp[0].outputHook[0] 	"avg packets/s" 	1092.2818885719
scalar ExamTaskNetwork_no_CCTV.MainRouter.ppp[0].inputHook[0] 	duration 	1000.0001020141
scalar ExamTaskNetwork_no_CCTV.MainRouter.ppp[0].inputHook[0] 	"total packets" 	731797
scalar ExamTaskNetwork_no_CCTV.MainRouter.ppp[0].inputHook[0] 	"total bits" 	6036316608
scalar ExamTaskNetwork_no_CCTV.MainRouter.ppp[0].inputHook[0] 	"avg throughput (bit/s)" 	6036315.9922109
scalar ExamTaskNetwork_no_CCTV.MainRouter.ppp[0].inputHook[0] 	"avg packets/s" 	731.79692534643
statistic ExamTaskNetwork_no_CCTV.MainRouter.ppp[0].queue 	queueingTime:histogram
field count 988699
field mean 0.0012240922024692
field stddev 0.0042271512071134
field sum 1210.2587364891
field sqrsum 19.148322349688
field min 0
field max 0.040404909135
attr interpolationmode  none
attr title  "queueing time, histogram"
bin	-INF	0
bin	-0.000724973333	0
bin	-0.00062831022193333	0
bin	-0.00053164711086667	0
bin	-0.0004349839998	0
bin	-0.00033832088873333	0
bin	-0.00024165777766667	0
bin	-0.0001449946666	0
bin	-4.8331555533333e-05	601197
bin	4.8331555533333e-05	9787
bin	0.0001449946666	6663
bin	0.00024165777766667	5299
bin	0.00033832088873333	4518
bin	0.0004349839998	4014
bin	0.00053164711086667	7699
bin	0.00062831022193333	6167
bin	0.000724973333	4484
bin	0.00082163644406667	33378
bin	0.00091829955513333	149852
bin	0.0010149626662	5207
bin	0.0011116257772667	6540
bin	0.0012082888883333	4365
bin	0.0013049519994	2461
bin	0.0014016151104667	3116
bin	0.0014982782215333	6458
bin	0.0015949413326	6920
bin	0.0016916044436667	2432
bin	0.0017882675547333	3890
bin	0.0018849306658	32031
bin	0.0019815937768667	2082
bin	0.0020782568879333	2617
bin	0.002174919999	77522
scalar ExamTaskNetwork_no_CCTV.MainRouter.ppp[0].queue 	dropPk:count 	103583
attr interpolationmode  none
attr source  dropPkByQueue
attr title  "dropped packets, count"
scalar ExamTaskNetwork_no_CCTV.MainRouter.ppp[0].queue 	dropPk:sum(packetBytes) 	74607734
attr interpolationmode  none
attr source  dropPkByQueue
attr title  "dropped packets, sum(packetBytes)"
scalar ExamTaskNetwork_no_CCTV.MainRouter.ppp[0].queue 	queueLength:max 	50
attr interpolationmode  sample-hold
attr title  "queue length, max"
scalar ExamTaskNetwork_no_CCTV.MainRouter.ppp[0].queue 	queueLength:timeavg 	1.2102586130245
attr interpolationmode  sample-hold
attr title  "queue length, timeavg"
scalar ExamTaskNetwork_no_CCTV.MainRouter.ppp[0].queue 	rcvdPk:count 	1092282
attr interpolationmode  none
attr title  "received packets, count"
scalar ExamTaskNetwork_no_CCTV.MainRouter.ppp[0].queue 	rcvdPk:sum(packetBytes) 	508158737
attr interpolationmode  none
attr title  "received packets, sum(packetBytes)"
scalar ExamTaskNetwork_no_CCTV.MainRouter.ppp[0].ppp 	rcvdPkFromHL:count 	988699
attr interpolationmode  none
attr source  packetReceivedFromUpper
attr title  "packets received from higher layer, count"
scalar ExamTaskNetwork_no_CCTV.MainRouter.ppp[0].ppp 	rcvdPkFromHL:sum(packetBytes) 	433551003
attr interpolationmode  none
attr source  packetReceivedFromUpper
attr title  "packets received from higher layer, sum(packetBytes)"
scalar ExamTaskNetwork_no_CCTV.MainRouter.ppp[0].ppp 	passedUpPk:count 	731797
attr interpolationmode  none
attr source  packetSentToUpper
attr title  "packets passed to higher layer, count"
scalar ExamTaskNetwork_no_CCTV.MainRouter.ppp[0].ppp 	passedUpPk:sum(packetBytes) 	754539576
attr interpolationmode  none
attr source  packetSentToUpper
attr title  "packets passed to higher layer, sum(packetBytes)"
scalar ExamTaskNetwork_no_CCTV.MainRouter.ppp[0].ppp 	txPk:count 	988699
attr interpolationmode  none
attr source  packetSentToLower
attr title  "packets transmitted, count"
scalar ExamTaskNetwork_no_CCTV.MainRouter.ppp[0].ppp 	txPk:sum(packetBytes) 	440471896
attr interpolationmode  none
attr source  packetSentToLower
attr title  "packets transmitted, sum(packetBytes)"
scalar ExamTaskNetwork_no_CCTV.MainRouter.ppp[0].ppp 	droppedPkBitError:count 	0
attr interpolationmode  none
attr source  dropPkBitError
attr title  "packets dropped/bit error, count"
scalar ExamTaskNetwork_no_CCTV.MainRouter.ppp[0].ppp 	droppedPkBitError:sum(packetBytes) 	0
attr interpolationmode  none
attr source  dropPkBitError
attr title  "packets dropped/bit error, sum(packetBytes)"
scalar ExamTaskNetwork_no_CCTV.MainRouter.ppp[0].ppp 	droppedPkIfaceDown:count 	0
attr interpolationmode  none
attr source  dropPkIfaceDown
attr title  "packets dropped/interface down, count"
scalar ExamTaskNetwork_no_CCTV.MainRouter.ppp[0].ppp 	droppedPkIfaceDown:sum(packetBytes) 	0
attr interpolationmode  none
attr source  dropPkIfaceDown
attr title  "packets dropped/interface down, sum(packetBytes)"
scalar ExamTaskNetwork_no_CCTV.MainRouter.ppp[0].ppp 	rxPkOk:count 	731797
attr interpolationmode  none
attr source  rxPkOk
attr title  "packets received OK, count"
scalar ExamTaskNetwork_no_CCTV.MainRouter.ppp[0].ppp 	rxPkOk:sum(packetBytes) 	759662155
attr interpolationmode  none
attr source  rxPkOk
attr title  "packets received OK, sum(packetBytes)"
scalar ExamTaskNetwork_no_CCTV.MainRouter.ppp[0].ppp 	txState:timeavg 	0.29364790037416
attr interpolationmode  sample-hold
attr title  "tx state, timeavg"
scalar ExamTaskNetwork_no_CCTV.Internet.networkLayer.arp 	initiatedARPResolution:count 	129
attr title  "ARP initiated resolutions, count"
scalar ExamTaskNetwork_no_CCTV.Internet.networkLayer.arp 	sentReply:count 	2
attr title  "ARP replies sent, count"
scalar ExamTaskNetwork_no_CCTV.Internet.networkLayer.arp 	sentReq:count 	129
attr title  "ARP request sent, count"
scalar ExamTaskNetwork_no_CCTV.Internet.networkLayer.arp 	failedARPResolution:count 	0
attr title  "ARP failed resolutions, count"
scalar ExamTaskNetwork_no_CCTV.Internet.networkLayer.arp 	completedARPResolution:count 	131
attr title  "ARP completed resolutions, count"
scalar ExamTaskNetwork_no_CCTV.Internet.lo0.lo 	rcvdPkFromHL:count 	0
attr interpolationmode  none
attr source  packetReceivedFromUpper
attr title  "packets received from higher layer, count"
scalar ExamTaskNetwork_no_CCTV.Internet.lo0.lo 	rcvdPkFromHL:sum(packetBytes) 	0
attr interpolationmode  none
attr source  packetReceivedFromUpper
attr title  "packets received from higher layer, sum(packetBytes)"
scalar ExamTaskNetwork_no_CCTV.Internet.lo0.lo 	passedUpPk:count 	0
attr interpolationmode  none
attr source  packetSentToUpper
attr title  "packets passed to higher layer, count"
scalar ExamTaskNetwork_no_CCTV.Internet.lo0.lo 	passedUpPk:sum(packetBytes) 	0
attr interpolationmode  none
attr source  packetSentToUpper
attr title  "packets passed to higher layer, sum(packetBytes)"
scalar ExamTaskNetwork_no_CCTV.Internet.lo0.lo 	droppedPkBitError:count 	0
attr interpolationmode  none
attr source  dropPkBitError
attr title  "packets dropped/bit error, count"
scalar ExamTaskNetwork_no_CCTV.Internet.lo0.lo 	droppedPkBitError:sum(packetBytes) 	0
attr interpolationmode  none
attr source  dropPkBitError
attr title  "packets dropped/bit error, sum(packetBytes)"
scalar ExamTaskNetwork_no_CCTV.Internet.eth[0].mac 	"simulated time" 	1000.0001020141
scalar ExamTaskNetwork_no_CCTV.Internet.eth[0].mac 	full-duplex 	1
scalar ExamTaskNetwork_no_CCTV.Internet.eth[0].mac 	"frames/sec sent" 	1067.4628911038
scalar ExamTaskNetwork_no_CCTV.Internet.eth[0].mac 	"frames/sec rcvd" 	1177.9438798332
scalar ExamTaskNetwork_no_CCTV.Internet.eth[0].mac 	"bits/sec sent" 	4003835.5435525
scalar ExamTaskNetwork_no_CCTV.Internet.eth[0].mac 	"bits/sec rcvd" 	6084312.7313146
scalar ExamTaskNetwork_no_CCTV.Internet.eth[0].mac 	"rx channel idle (%)" 	93.840298860377
scalar ExamTaskNetwork_no_CCTV.Internet.eth[0].mac 	"rx channel utilization (%)" 	6.1597011396234
scalar ExamTaskNetwork_no_CCTV.Internet.eth[0].mac 	rxPkFromHL:count 	1067463
attr interpolationmode  none
attr source  rxPkFromHL
attr title  "packet bytes from higher layer, count"
scalar ExamTaskNetwork_no_CCTV.Internet.eth[0].mac 	rxPkFromHL:sum(packetBytes) 	500479494
attr interpolationmode  none
attr source  rxPkFromHL
attr title  "packet bytes from higher layer, sum(packetBytes)"
scalar ExamTaskNetwork_no_CCTV.Internet.eth[0].mac 	rxPausePkUnits:count 	0
attr interpolationmode  none
attr title  "pause units received, count"
scalar ExamTaskNetwork_no_CCTV.Internet.eth[0].mac 	rxPausePkUnits:sum 	0
attr interpolationmode  none
attr title  "pause units received, sum"
scalar ExamTaskNetwork_no_CCTV.Internet.eth[0].mac 	txPausePkUnits:count 	0
attr interpolationmode  none
attr title  "pause units sent, count"
scalar ExamTaskNetwork_no_CCTV.Internet.eth[0].mac 	txPausePkUnits:sum 	0
attr interpolationmode  none
attr title  "pause units sent, sum"
scalar ExamTaskNetwork_no_CCTV.Internet.eth[0].mac 	txPk:count 	1067463
attr interpolationmode  none
attr source  txPk
attr title  "packets transmitted, count"
scalar ExamTaskNetwork_no_CCTV.Internet.eth[0].mac 	txPk:sum(packetBytes) 	500479494
attr interpolationmode  none
attr source  txPk
attr title  "packets transmitted, sum(packetBytes)"
scalar ExamTaskNetwork_no_CCTV.Internet.eth[0].mac 	droppedPkNotForUs:count 	0
attr interpolationmode  none
attr source  dropPkNotForUs
attr title  "packets dropped/not for us, count"
scalar ExamTaskNetwork_no_CCTV.Internet.eth[0].mac 	droppedPkNotForUs:sum(packetBytes) 	0
attr interpolationmode  none
attr source  dropPkNotForUs
attr title  "packets dropped/not for us, sum(packetBytes)"
scalar ExamTaskNetwork_no_CCTV.Internet.eth[0].mac 	passedUpPk:count 	1177944
attr interpolationmode  none
attr source  packetSentToUpper
attr title  "packets passed to higher layer, count"
scalar ExamTaskNetwork_no_CCTV.Internet.eth[0].mac 	passedUpPk:sum(packetBytes) 	760539169
attr interpolationmode  none
attr source  packetSentToUpper
attr title  "packets passed to higher layer, sum(packetBytes)"
scalar ExamTaskNetwork_no_CCTV.Internet.eth[0].mac 	droppedPkBitError:count 	0
attr interpolationmode  none
attr source  dropPkBitError
attr title  "packets dropped/bit error, count"
scalar ExamTaskNetwork_no_CCTV.Internet.eth[0].mac 	droppedPkBitError:sum(packetBytes) 	0
attr interpolationmode  none
attr source  dropPkBitError
attr title  "packets dropped/bit error, sum(packetBytes)"
scalar ExamTaskNetwork_no_CCTV.Internet.eth[0].mac 	droppedPkIfaceDown:count 	0
attr interpolationmode  none
attr source  dropPkIfaceDown
attr title  "packets dropped/interface down, count"
scalar ExamTaskNetwork_no_CCTV.Internet.eth[0].mac 	droppedPkIfaceDown:sum(packetBytes) 	0
attr interpolationmode  none
attr source  dropPkIfaceDown
attr title  "packets dropped/interface down, sum(packetBytes)"
scalar ExamTaskNetwork_no_CCTV.Internet.eth[0].mac 	rxPkOk:count 	1177944
attr interpolationmode  none
attr source  rxPkOk
attr title  "packets received OK, count"
scalar ExamTaskNetwork_no_CCTV.Internet.eth[0].mac 	rxPkOk:sum(packetBytes) 	760539169
attr interpolationmode  none
attr source  rxPkOk
attr title  "packets received OK, sum(packetBytes)"
scalar ExamTaskNetwork_no_CCTV.Internet.eth[0].encap 	pauseSent:count 	0
attr title  "pause sent, count"
scalar ExamTaskNetwork_no_CCTV.Internet.eth[0].encap 	pauseSent:sum 	0
attr title  "pause sent, sum"
scalar ExamTaskNetwork_no_CCTV.Internet.eth[0].encap 	decapPk:count 	1177944
attr interpolationmode  none
attr source  decapPk
attr title  "packets decapsulated, count"
scalar ExamTaskNetwork_no_CCTV.Internet.eth[0].encap 	decapPk:sum(packetBytes) 	728540376
attr interpolationmode  none
attr source  decapPk
attr title  "packets decapsulated, sum(packetBytes)"
scalar ExamTaskNetwork_no_CCTV.Internet.eth[0].encap 	encapPk:count 	1067463
attr interpolationmode  none
attr source  encapPk
attr title  "packets encapsulated, count"
scalar ExamTaskNetwork_no_CCTV.Internet.eth[0].encap 	encapPk:sum(packetBytes) 	472515761
attr interpolationmode  none
attr source  encapPk
attr title  "packets encapsulated, sum(packetBytes)"
scalar ExamTaskNetwork_no_CCTV.Internet.tcpApp[0] 	sentPk:count 	488
attr interpolationmode  none
attr source  sentPk
attr title  "packets sent, count"
scalar ExamTaskNetwork_no_CCTV.Internet.tcpApp[0] 	sentPk:sum(packetBytes) 	319264878
attr interpolationmode  none
attr source  sentPk
attr title  "packets sent, sum(packetBytes)"
scalar ExamTaskNetwork_no_CCTV.Internet.tcpApp[0] 	rcvdPk:count 	488
attr interpolationmode  none
attr source  rcvdPk
attr title  "packets received, count"
scalar ExamTaskNetwork_no_CCTV.Internet.tcpApp[0] 	rcvdPk:sum(packetBytes) 	3997696
attr interpolationmode  none
attr source  rcvdPk
attr title  "packets received, sum(packetBytes)"
statistic ExamTaskNetwork_no_CCTV.Internet.tcpApp[0] 	endToEndDelay:histogram
field count 488
field mean 0.34670654999366
field stddev 0.5198261096967
field sum 169.19279639691
field sqrsum 190.25699348756
field min 0.207755627684
field max 3.310389987568
attr interpolationmode  none
attr source  messageAge(rcvdPk)
attr title  "end-to-end delay, histogram"
attr unit  s
bin	-INF	0
bin	-1.3052594696295	0
bin	-1.1035229075916	0
bin	-0.90178634555363	0
bin	-0.7000497835157	0
bin	-0.49831322147777	0
bin	-0.29657665943983	0
bin	-0.0948400974019	0
bin	0.10689646463603	449
bin	0.30863302667397	23
bin	0.5103695887119	0
bin	0.71210615074983	0
bin	0.91384271278777	0
bin	1.1155792748257	0
bin	1.3173158368636	0
bin	1.5190523989016	0
bin	1.7207889609395	0
bin	1.9225255229774	0
bin	2.1242620850154	0
bin	2.3259986470533	0
bin	2.5277352090912	0
bin	2.7294717711292	1
bin	2.9312083331671	5
bin	3.132944895205	10
bin	3.334681457243	0
bin	3.5364180192809	0
bin	3.7381545813188	0
bin	3.9398911433568	0
bin	4.1416277053947	0
bin	4.3433642674326	0
bin	4.5451008294706	0
bin	4.7468373915085	0
scalar ExamTaskNetwork_no_CCTV.Internet.tcpApp[1] 	rcvdPk:count 	443785
attr interpolationmode  none
attr source  rcvdPk
attr title  "packets received, count"
scalar ExamTaskNetwork_no_CCTV.Internet.tcpApp[1] 	rcvdPk:sum(packetBytes) 	686212170
attr interpolationmode  none
attr source  rcvdPk
attr title  "packets received, sum(packetBytes)"
statistic ExamTaskNetwork_no_CCTV.Internet.tcpApp[1] 	endToEndDelay:histogram
field count 443785
field mean 0
field stddev 0
field sum 0
field sqrsum 0
field min 0
field max 0
attr interpolationmode  none
attr source  messageAge(rcvdPk)
attr title  "end-to-end delay, histogram"
attr unit  s
bin	-INF	0
bin	-0.5	0
bin	-0.46666666666667	0
bin	-0.43333333333333	0
bin	-0.4	0
bin	-0.36666666666667	0
bin	-0.33333333333333	0
bin	-0.3	0
bin	-0.26666666666667	0
bin	-0.23333333333333	0
bin	-0.2	0
bin	-0.16666666666667	0
bin	-0.13333333333333	0
bin	-0.1	0
bin	-0.066666666666667	0
bin	-0.033333333333333	0
bin	0	443785
bin	0.033333333333333	0
bin	0.066666666666667	0
bin	0.1	0
bin	0.13333333333333	0
bin	0.16666666666667	0
bin	0.2	0
bin	0.23333333333333	0
bin	0.26666666666667	0
bin	0.3	0
bin	0.33333333333333	0
bin	0.36666666666667	0
bin	0.4	0
bin	0.43333333333333	0
bin	0.46666666666667	0
bin	0.5	0
