version 2
run ExamTaskNetwork_no_CCTV-98-20160820-18:26:09-30425
attr configname ExamTaskNetwork_no_CCTV
attr datetime 20160820-18:26:09
attr experiment ExamTaskNetwork_no_CCTV
attr inifile omnetpp.ini
attr iterationvars "$simtime=1000, $0=40"
attr iterationvars2 "$simtime=1000, $0=40, $repetition=8"
attr measurement "$simtime=1000, $0=40"
attr network ExamTaskNetwork_no_CCTV
attr processid 30425
attr repetition 8
attr replication #8
attr resultdir results
attr runnumber 98
attr seedset 98
attr simtime 1000

scalar . 	simtime 	1000
scalar ExamTaskNetwork_no_CCTV.ConferenceLaptop.networkLayer.arp 	initiatedARPResolution:count 	9
attr title  "ARP initiated resolutions, count"
scalar ExamTaskNetwork_no_CCTV.ConferenceLaptop.networkLayer.arp 	sentReply:count 	8
attr title  "ARP replies sent, count"
scalar ExamTaskNetwork_no_CCTV.ConferenceLaptop.networkLayer.arp 	sentReq:count 	9
attr title  "ARP request sent, count"
scalar ExamTaskNetwork_no_CCTV.ConferenceLaptop.networkLayer.arp 	failedARPResolution:count 	0
attr title  "ARP failed resolutions, count"
scalar ExamTaskNetwork_no_CCTV.ConferenceLaptop.networkLayer.arp 	completedARPResolution:count 	167
attr title  "ARP completed resolutions, count"
scalar ExamTaskNetwork_no_CCTV.ConferenceLaptop.lo0.lo 	rcvdPkFromHL:count 	0
attr interpolationmode  none
attr source  packetReceivedFromUpper
attr title  "packets received from higher layer, count"
scalar ExamTaskNetwork_no_CCTV.ConferenceLaptop.lo0.lo 	rcvdPkFromHL:sum(packetBytes) 	0
attr interpolationmode  none
attr source  packetReceivedFromUpper
attr title  "packets received from higher layer, sum(packetBytes)"
scalar ExamTaskNetwork_no_CCTV.ConferenceLaptop.lo0.lo 	passedUpPk:count 	0
attr interpolationmode  none
attr source  packetSentToUpper
attr title  "packets passed to higher layer, count"
scalar ExamTaskNetwork_no_CCTV.ConferenceLaptop.lo0.lo 	passedUpPk:sum(packetBytes) 	0
attr interpolationmode  none
attr source  packetSentToUpper
attr title  "packets passed to higher layer, sum(packetBytes)"
scalar ExamTaskNetwork_no_CCTV.ConferenceLaptop.lo0.lo 	droppedPkBitError:count 	0
attr interpolationmode  none
attr source  dropPkBitError
attr title  "packets dropped/bit error, count"
scalar ExamTaskNetwork_no_CCTV.ConferenceLaptop.lo0.lo 	droppedPkBitError:sum(packetBytes) 	0
attr interpolationmode  none
attr source  dropPkBitError
attr title  "packets dropped/bit error, sum(packetBytes)"
scalar ExamTaskNetwork_no_CCTV.ConferenceLaptop.wlan[0].agent 	dropConfirm:count 	0
attr title  "dropped confirms, count"
scalar ExamTaskNetwork_no_CCTV.ConferenceLaptop.wlan[0].agent 	acceptConfirm:count 	36
attr title  "accepted confirms, count"
scalar ExamTaskNetwork_no_CCTV.ConferenceLaptop.wlan[0].agent 	sentRequest:count 	36
attr title  "sent requests, count"
scalar ExamTaskNetwork_no_CCTV.ConferenceLaptop.wlan[0].mgmt 	dropPkByQueue:count 	0
attr interpolationmode  none
attr source  dropPkByQueue
attr title  "packets dropped by queue, count"
scalar ExamTaskNetwork_no_CCTV.ConferenceLaptop.wlan[0].mgmt 	dropPkByQueue:sum(packetBytes) 	0
attr interpolationmode  none
attr source  dropPkByQueue
attr title  "packets dropped by queue, sum(packetBytes)"
scalar ExamTaskNetwork_no_CCTV.ConferenceLaptop.wlan[0].mgmt 	dataQueueLen:max 	4
attr interpolationmode  sample-hold
attr title  "data queue length, max"
scalar ExamTaskNetwork_no_CCTV.ConferenceLaptop.wlan[0].mgmt 	dataQueueLen:timeavg 	0.0012682860694558
attr interpolationmode  sample-hold
attr title  "data queue length, timeavg"
scalar ExamTaskNetwork_no_CCTV.ConferenceLaptop.wlan[0].mac 	"number of received packets" 	24345
scalar ExamTaskNetwork_no_CCTV.ConferenceLaptop.wlan[0].mac 	"number of collisions" 	39751
scalar ExamTaskNetwork_no_CCTV.ConferenceLaptop.wlan[0].mac 	"number of internal collisions" 	0
scalar ExamTaskNetwork_no_CCTV.ConferenceLaptop.wlan[0].mac 	"number of retry for AC 0" 	8061
scalar ExamTaskNetwork_no_CCTV.ConferenceLaptop.wlan[0].mac 	"sent and received bits" 	292036672
scalar ExamTaskNetwork_no_CCTV.ConferenceLaptop.wlan[0].mac 	"sent packet within AC 0" 	24884
scalar ExamTaskNetwork_no_CCTV.ConferenceLaptop.wlan[0].mac 	"sent in TXOP " 	0
scalar ExamTaskNetwork_no_CCTV.ConferenceLaptop.wlan[0].mac 	"sentWithoutRetry AC 0" 	18915
scalar ExamTaskNetwork_no_CCTV.ConferenceLaptop.wlan[0].mac 	"numGivenUp AC 0" 	3
scalar ExamTaskNetwork_no_CCTV.ConferenceLaptop.wlan[0].mac 	"numDropped AC 0" 	0
scalar ExamTaskNetwork_no_CCTV.ConferenceLaptop.wlan[0].mac 	rcvdPkFromHL:count 	24899
attr interpolationmode  none
attr source  packetReceivedFromUpper
attr title  "packets received from higher layer, count"
scalar ExamTaskNetwork_no_CCTV.ConferenceLaptop.wlan[0].mac 	rcvdPkFromHL:sum(packetBytes) 	36508994
attr interpolationmode  none
attr source  packetReceivedFromUpper
attr title  "packets received from higher layer, sum(packetBytes)"
scalar ExamTaskNetwork_no_CCTV.ConferenceLaptop.wlan[0].mac 	passedUpPk:count 	34273
attr interpolationmode  none
attr source  packetSentToUpper
attr title  "packets passed to higher layer, count"
scalar ExamTaskNetwork_no_CCTV.ConferenceLaptop.wlan[0].mac 	passedUpPk:sum(packetBytes) 	36487816
attr interpolationmode  none
attr source  packetSentToUpper
attr title  "packets passed to higher layer, sum(packetBytes)"
scalar ExamTaskNetwork_no_CCTV.ConferenceLaptop.wlan[0].mac 	rcvdPkFromLL:count 	3688926
attr interpolationmode  none
attr source  packetReceivedFromLower
attr title  "packets received from lower layer, count"
scalar ExamTaskNetwork_no_CCTV.ConferenceLaptop.wlan[0].mac 	rcvdPkFromLL:sum(packetBytes) 	1363246728
attr interpolationmode  none
attr source  packetReceivedFromLower
attr title  "packets received from lower layer, sum(packetBytes)"
scalar ExamTaskNetwork_no_CCTV.ConferenceLaptop.wlan[0].mac 	sentDownPk:count 	57305
attr interpolationmode  none
attr source  packetSentToLower
attr title  "packets sent to lower layer, count"
scalar ExamTaskNetwork_no_CCTV.ConferenceLaptop.wlan[0].mac 	sentDownPk:sum(packetBytes) 	48633654
attr interpolationmode  none
attr source  packetSentToLower
attr title  "packets sent to lower layer, sum(packetBytes)"
scalar ExamTaskNetwork_no_CCTV.ConferenceLaptop.wlan[0].radio 	lossRate:min 	0
attr interpolationmode  backward-sample-hold
attr title  "packet loss rate, min"
scalar ExamTaskNetwork_no_CCTV.ConferenceLaptop.wlan[0].radio 	lossRate:max 	0.24
attr interpolationmode  backward-sample-hold
attr title  "packet loss rate, max"
scalar ExamTaskNetwork_no_CCTV.ConferenceLaptop.wlan[0].radio 	lossRate:timeavg 	0.01067573967551
attr interpolationmode  backward-sample-hold
attr title  "packet loss rate, timeavg"
statistic ExamTaskNetwork_no_CCTV.ConferenceLaptop.wlan[0].radio 	channelNo:histogram
field count 1
field mean 0
field stddev -nan
field sum 0
field sqrsum 0
field min 0
field max 0
attr interpolationmode  sample-hold
attr title  "channel no, histogram"
bin	-INF	0
bin	-0.5	0
bin	-0.46666666666667	0
bin	-0.43333333333333	0
bin	-0.4	0
bin	-0.36666666666667	0
bin	-0.33333333333333	0
bin	-0.3	0
bin	-0.26666666666667	0
bin	-0.23333333333333	0
bin	-0.2	0
bin	-0.16666666666667	0
bin	-0.13333333333333	0
bin	-0.1	0
bin	-0.066666666666667	0
bin	-0.033333333333333	0
bin	0	1
bin	0.033333333333333	0
bin	0.066666666666667	0
bin	0.1	0
bin	0.13333333333333	0
bin	0.16666666666667	0
bin	0.2	0
bin	0.23333333333333	0
bin	0.26666666666667	0
bin	0.3	0
bin	0.33333333333333	0
bin	0.36666666666667	0
bin	0.4	0
bin	0.43333333333333	0
bin	0.46666666666667	0
bin	0.5	0
scalar ExamTaskNetwork_no_CCTV.ConferenceLaptop.wlan[0].radio 	radioState:count 	7501213
attr interpolationmode  sample-hold
attr title  "radio state (enum), count"
scalar ExamTaskNetwork_no_CCTV.ConferenceLaptop.wlan[0].radio 	bitrate:min 	54000000
attr interpolationmode  sample-hold
attr title  "tx bitrate, min"
attr unit  bps
scalar ExamTaskNetwork_no_CCTV.ConferenceLaptop.wlan[0].radio 	bitrate:max 	54000000
attr interpolationmode  sample-hold
attr title  "tx bitrate, max"
attr unit  bps
scalar ExamTaskNetwork_no_CCTV.ConferenceLaptop.wlan[0].radio 	bitrate:timeavg 	54000000
attr interpolationmode  sample-hold
attr title  "tx bitrate, timeavg"
attr unit  bps
scalar ExamTaskNetwork_no_CCTV.ConferenceLaptop.udpApp[0] 	"packets sent" 	24963
scalar ExamTaskNetwork_no_CCTV.ConferenceLaptop.udpApp[0] 	"packets received" 	24172
scalar ExamTaskNetwork_no_CCTV.ConferenceLaptop.udpApp[0] 	lateRatio 	0.00016548072744627
scalar ExamTaskNetwork_no_CCTV.ConferenceLaptop.udpApp[0] 	"discarded packets" 	4
statistic ExamTaskNetwork_no_CCTV.ConferenceLaptop.udpApp[0] 	endToEndDelay:stats
field count 24172
field mean 0.04822527600381
field stddev 0.015905293785055
field sum 1165.7013715641
field sqrsum 62.331010572369
field min 0.016456757507
field max 0.123303811327
attr source  VoIPPacketDelay
attr title  "VoIP Packet End-to-End Delay, stats"
attr unit  s
scalar ExamTaskNetwork_no_CCTV.ConferenceLaptop.udpApp[0] 	sentPk:count 	24963
attr interpolationmode  none
attr source  sentPk
attr title  "packets sent, count"
scalar ExamTaskNetwork_no_CCTV.ConferenceLaptop.udpApp[0] 	sentPk:sum(packetBytes) 	34948200
attr interpolationmode  none
attr source  sentPk
attr title  "packets sent, sum(packetBytes)"
scalar ExamTaskNetwork_no_CCTV.ConferenceLaptop.udpApp[0] 	rcvdPk:count 	24172
attr interpolationmode  none
attr source  rcvdPk
attr title  "packets received, count"
scalar ExamTaskNetwork_no_CCTV.ConferenceLaptop.udpApp[0] 	rcvdPk:sum(packetBytes) 	33840800
attr interpolationmode  none
attr source  rcvdPk
attr title  "packets received, sum(packetBytes)"
statistic ExamTaskNetwork_no_CCTV.ConferenceLaptop.udpApp[0] 	rcvdPkLifetime:stats
field count 24172
field mean 0.04822527600381
field stddev 0.015905293785055
field sum 1165.7013715641
field sqrsum 62.331010572369
field min 0.016456757507
field max 0.123303811327
attr interpolationmode  none
attr source  messageAge(rcvdPk)
attr title  "received packet lifetime, stats"
attr unit  s
scalar ExamTaskNetwork_no_CCTV.ConferenceLaptop.udp 	droppedPkBadChecksum:count 	0
attr interpolationmode  none
attr title  "packets dropped (checksum error), count"
scalar ExamTaskNetwork_no_CCTV.ConferenceLaptop.udp 	droppedPkWrongPort:count 	0
attr interpolationmode  none
attr title  "packets dropped (wrong port), count"
scalar ExamTaskNetwork_no_CCTV.ConferenceLaptop.udp 	passedUpPk:count 	24172
attr interpolationmode  none
attr title  "packets passed up, count"
scalar ExamTaskNetwork_no_CCTV.ConferenceLaptop.udp 	sentPk:count 	24963
attr interpolationmode  none
attr source  sentPk
attr title  "packets sent, count"
scalar ExamTaskNetwork_no_CCTV.ConferenceLaptop.udp 	sentPk:sum(packetBytes) 	35147904
attr interpolationmode  none
attr source  sentPk
attr title  "packets sent, sum(packetBytes)"
scalar ExamTaskNetwork_no_CCTV.ConferenceLaptop.udp 	rcvdPk:count 	24172
attr interpolationmode  none
attr source  rcvdPk
attr title  "packets received, count"
scalar ExamTaskNetwork_no_CCTV.ConferenceLaptop.udp 	rcvdPk:sum(packetBytes) 	34034176
attr interpolationmode  none
attr source  rcvdPk
attr title  "packets received, sum(packetBytes)"
scalar ExamTaskNetwork_no_CCTV.FTPLaptop.networkLayer.arp 	initiatedARPResolution:count 	9
attr title  "ARP initiated resolutions, count"
scalar ExamTaskNetwork_no_CCTV.FTPLaptop.networkLayer.arp 	sentReply:count 	7
attr title  "ARP replies sent, count"
scalar ExamTaskNetwork_no_CCTV.FTPLaptop.networkLayer.arp 	sentReq:count 	12
attr title  "ARP request sent, count"
scalar ExamTaskNetwork_no_CCTV.FTPLaptop.networkLayer.arp 	failedARPResolution:count 	0
attr title  "ARP failed resolutions, count"
scalar ExamTaskNetwork_no_CCTV.FTPLaptop.networkLayer.arp 	completedARPResolution:count 	177
attr title  "ARP completed resolutions, count"
scalar ExamTaskNetwork_no_CCTV.FTPLaptop.lo0.lo 	rcvdPkFromHL:count 	0
attr interpolationmode  none
attr source  packetReceivedFromUpper
attr title  "packets received from higher layer, count"
scalar ExamTaskNetwork_no_CCTV.FTPLaptop.lo0.lo 	rcvdPkFromHL:sum(packetBytes) 	0
attr interpolationmode  none
attr source  packetReceivedFromUpper
attr title  "packets received from higher layer, sum(packetBytes)"
scalar ExamTaskNetwork_no_CCTV.FTPLaptop.lo0.lo 	passedUpPk:count 	0
attr interpolationmode  none
attr source  packetSentToUpper
attr title  "packets passed to higher layer, count"
scalar ExamTaskNetwork_no_CCTV.FTPLaptop.lo0.lo 	passedUpPk:sum(packetBytes) 	0
attr interpolationmode  none
attr source  packetSentToUpper
attr title  "packets passed to higher layer, sum(packetBytes)"
scalar ExamTaskNetwork_no_CCTV.FTPLaptop.lo0.lo 	droppedPkBitError:count 	0
attr interpolationmode  none
attr source  dropPkBitError
attr title  "packets dropped/bit error, count"
scalar ExamTaskNetwork_no_CCTV.FTPLaptop.lo0.lo 	droppedPkBitError:sum(packetBytes) 	0
attr interpolationmode  none
attr source  dropPkBitError
attr title  "packets dropped/bit error, sum(packetBytes)"
scalar ExamTaskNetwork_no_CCTV.FTPLaptop.wlan[0].agent 	dropConfirm:count 	0
attr title  "dropped confirms, count"
scalar ExamTaskNetwork_no_CCTV.FTPLaptop.wlan[0].agent 	acceptConfirm:count 	36
attr title  "accepted confirms, count"
scalar ExamTaskNetwork_no_CCTV.FTPLaptop.wlan[0].agent 	sentRequest:count 	36
attr title  "sent requests, count"
scalar ExamTaskNetwork_no_CCTV.FTPLaptop.wlan[0].mgmt 	dropPkByQueue:count 	1974
attr interpolationmode  none
attr source  dropPkByQueue
attr title  "packets dropped by queue, count"
scalar ExamTaskNetwork_no_CCTV.FTPLaptop.wlan[0].mgmt 	dropPkByQueue:sum(packetBytes) 	3055744
attr interpolationmode  none
attr source  dropPkByQueue
attr title  "packets dropped by queue, sum(packetBytes)"
scalar ExamTaskNetwork_no_CCTV.FTPLaptop.wlan[0].mgmt 	dataQueueLen:max 	50
attr interpolationmode  sample-hold
attr title  "data queue length, max"
scalar ExamTaskNetwork_no_CCTV.FTPLaptop.wlan[0].mgmt 	dataQueueLen:timeavg 	3.2790609686298
attr interpolationmode  sample-hold
attr title  "data queue length, timeavg"
scalar ExamTaskNetwork_no_CCTV.FTPLaptop.wlan[0].mac 	"number of received packets" 	347772
scalar ExamTaskNetwork_no_CCTV.FTPLaptop.wlan[0].mac 	"number of collisions" 	7493
scalar ExamTaskNetwork_no_CCTV.FTPLaptop.wlan[0].mac 	"number of internal collisions" 	0
scalar ExamTaskNetwork_no_CCTV.FTPLaptop.wlan[0].mac 	"number of retry for AC 0" 	69847
scalar ExamTaskNetwork_no_CCTV.FTPLaptop.wlan[0].mac 	"sent and received bits" 	4605415248
scalar ExamTaskNetwork_no_CCTV.FTPLaptop.wlan[0].mac 	"sent packet within AC 0" 	372000
scalar ExamTaskNetwork_no_CCTV.FTPLaptop.wlan[0].mac 	"sent in TXOP " 	0
scalar ExamTaskNetwork_no_CCTV.FTPLaptop.wlan[0].mac 	"sentWithoutRetry AC 0" 	316939
scalar ExamTaskNetwork_no_CCTV.FTPLaptop.wlan[0].mac 	"numGivenUp AC 0" 	3
scalar ExamTaskNetwork_no_CCTV.FTPLaptop.wlan[0].mac 	"numDropped AC 0" 	0
scalar ExamTaskNetwork_no_CCTV.FTPLaptop.wlan[0].mac 	rcvdPkFromHL:count 	372015
attr interpolationmode  none
attr source  packetReceivedFromUpper
attr title  "packets received from higher layer, count"
scalar ExamTaskNetwork_no_CCTV.FTPLaptop.wlan[0].mac 	rcvdPkFromHL:sum(packetBytes) 	575681550
attr interpolationmode  none
attr source  packetReceivedFromUpper
attr title  "packets received from higher layer, sum(packetBytes)"
scalar ExamTaskNetwork_no_CCTV.FTPLaptop.wlan[0].mac 	passedUpPk:count 	357693
attr interpolationmode  none
attr source  packetSentToUpper
attr title  "packets passed to higher layer, count"
scalar ExamTaskNetwork_no_CCTV.FTPLaptop.wlan[0].mac 	passedUpPk:sum(packetBytes) 	29282784
attr interpolationmode  none
attr source  packetSentToUpper
attr title  "packets passed to higher layer, sum(packetBytes)"
scalar ExamTaskNetwork_no_CCTV.FTPLaptop.wlan[0].mac 	rcvdPkFromLL:count 	2956597
attr interpolationmode  none
attr source  packetReceivedFromLower
attr title  "packets received from lower layer, count"
scalar ExamTaskNetwork_no_CCTV.FTPLaptop.wlan[0].mac 	rcvdPkFromLL:sum(packetBytes) 	753451904
attr interpolationmode  none
attr source  packetReceivedFromLower
attr title  "packets received from lower layer, sum(packetBytes)"
scalar ExamTaskNetwork_no_CCTV.FTPLaptop.wlan[0].mac 	sentDownPk:count 	789634
attr interpolationmode  none
attr source  packetSentToLower
attr title  "packets sent to lower layer, count"
scalar ExamTaskNetwork_no_CCTV.FTPLaptop.wlan[0].mac 	sentDownPk:sum(packetBytes) 	688597824
attr interpolationmode  none
attr source  packetSentToLower
attr title  "packets sent to lower layer, sum(packetBytes)"
scalar ExamTaskNetwork_no_CCTV.FTPLaptop.wlan[0].radio 	lossRate:min 	0
attr interpolationmode  backward-sample-hold
attr title  "packet loss rate, min"
scalar ExamTaskNetwork_no_CCTV.FTPLaptop.wlan[0].radio 	lossRate:max 	0.24
attr interpolationmode  backward-sample-hold
attr title  "packet loss rate, max"
scalar ExamTaskNetwork_no_CCTV.FTPLaptop.wlan[0].radio 	lossRate:timeavg 	0.0024818917484855
attr interpolationmode  backward-sample-hold
attr title  "packet loss rate, timeavg"
statistic ExamTaskNetwork_no_CCTV.FTPLaptop.wlan[0].radio 	channelNo:histogram
field count 1
field mean 0
field stddev -nan
field sum 0
field sqrsum 0
field min 0
field max 0
attr interpolationmode  sample-hold
attr title  "channel no, histogram"
bin	-INF	0
bin	-0.5	0
bin	-0.46666666666667	0
bin	-0.43333333333333	0
bin	-0.4	0
bin	-0.36666666666667	0
bin	-0.33333333333333	0
bin	-0.3	0
bin	-0.26666666666667	0
bin	-0.23333333333333	0
bin	-0.2	0
bin	-0.16666666666667	0
bin	-0.13333333333333	0
bin	-0.1	0
bin	-0.066666666666667	0
bin	-0.033333333333333	0
bin	0	1
bin	0.033333333333333	0
bin	0.066666666666667	0
bin	0.1	0
bin	0.13333333333333	0
bin	0.16666666666667	0
bin	0.2	0
bin	0.23333333333333	0
bin	0.26666666666667	0
bin	0.3	0
bin	0.33333333333333	0
bin	0.36666666666667	0
bin	0.4	0
bin	0.43333333333333	0
bin	0.46666666666667	0
bin	0.5	0
scalar ExamTaskNetwork_no_CCTV.FTPLaptop.wlan[0].radio 	radioState:count 	7534991
attr interpolationmode  sample-hold
attr title  "radio state (enum), count"
scalar ExamTaskNetwork_no_CCTV.FTPLaptop.wlan[0].radio 	bitrate:min 	54000000
attr interpolationmode  sample-hold
attr title  "tx bitrate, min"
attr unit  bps
scalar ExamTaskNetwork_no_CCTV.FTPLaptop.wlan[0].radio 	bitrate:max 	54000000
attr interpolationmode  sample-hold
attr title  "tx bitrate, max"
attr unit  bps
scalar ExamTaskNetwork_no_CCTV.FTPLaptop.wlan[0].radio 	bitrate:timeavg 	54000000
attr interpolationmode  sample-hold
attr title  "tx bitrate, timeavg"
attr unit  bps
scalar ExamTaskNetwork_no_CCTV.FTPLaptop.tcpApp[0] 	bytesRcvd 	0
scalar ExamTaskNetwork_no_CCTV.FTPLaptop.tcpApp[0] 	bytesSent 	1778384896
scalar ExamTaskNetwork_no_CCTV.FTPLaptop.tcpApp[0] 	sentPk:count 	1
attr interpolationmode  none
attr source  sentPk
attr title  "packets sent, count"
scalar ExamTaskNetwork_no_CCTV.FTPLaptop.tcpApp[0] 	sentPk:sum(packetBytes) 	1778384896
attr interpolationmode  none
attr source  sentPk
attr title  "packets sent, sum(packetBytes)"
scalar ExamTaskNetwork_no_CCTV.FTPLaptop.tcpApp[0] 	rcvdPk:count 	0
attr interpolationmode  none
attr source  rcvdPk
attr title  "packets received, count"
scalar ExamTaskNetwork_no_CCTV.FTPLaptop.tcpApp[0] 	rcvdPk:sum(packetBytes) 	0
attr interpolationmode  none
attr source  rcvdPk
attr title  "packets received, sum(packetBytes)"
statistic ExamTaskNetwork_no_CCTV.FTPLaptop.tcpApp[0] 	endToEndDelay:histogram
field count 0
field mean -nan
field stddev -nan
field sum 0
field sqrsum 0
field min -nan
field max -nan
attr interpolationmode  none
attr source  messageAge(rcvdPk)
attr title  "end-to-end delay, histogram"
attr unit  s
bin	-INF	0
bin	-0.5	0
bin	-0.46666666666667	0
bin	-0.43333333333333	0
bin	-0.4	0
bin	-0.36666666666667	0
bin	-0.33333333333333	0
bin	-0.3	0
bin	-0.26666666666667	0
bin	-0.23333333333333	0
bin	-0.2	0
bin	-0.16666666666667	0
bin	-0.13333333333333	0
bin	-0.1	0
bin	-0.066666666666667	0
bin	-0.033333333333333	0
bin	0	0
bin	0.033333333333333	0
bin	0.066666666666667	0
bin	0.1	0
bin	0.13333333333333	0
bin	0.16666666666667	0
bin	0.2	0
bin	0.23333333333333	0
bin	0.26666666666667	0
bin	0.3	0
bin	0.33333333333333	0
bin	0.36666666666667	0
bin	0.4	0
bin	0.43333333333333	0
bin	0.46666666666667	0
bin	0.5	0
scalar ExamTaskNetwork_no_CCTV.BrowsingLaptop[0].networkLayer.arp 	initiatedARPResolution:count 	9
attr title  "ARP initiated resolutions, count"
scalar ExamTaskNetwork_no_CCTV.BrowsingLaptop[0].networkLayer.arp 	sentReply:count 	5
attr title  "ARP replies sent, count"
scalar ExamTaskNetwork_no_CCTV.BrowsingLaptop[0].networkLayer.arp 	sentReq:count 	9
attr title  "ARP request sent, count"
scalar ExamTaskNetwork_no_CCTV.BrowsingLaptop[0].networkLayer.arp 	failedARPResolution:count 	0
attr title  "ARP failed resolutions, count"
scalar ExamTaskNetwork_no_CCTV.BrowsingLaptop[0].networkLayer.arp 	completedARPResolution:count 	122
attr title  "ARP completed resolutions, count"
scalar ExamTaskNetwork_no_CCTV.BrowsingLaptop[0].lo0.lo 	rcvdPkFromHL:count 	0
attr interpolationmode  none
attr source  packetReceivedFromUpper
attr title  "packets received from higher layer, count"
scalar ExamTaskNetwork_no_CCTV.BrowsingLaptop[0].lo0.lo 	rcvdPkFromHL:sum(packetBytes) 	0
attr interpolationmode  none
attr source  packetReceivedFromUpper
attr title  "packets received from higher layer, sum(packetBytes)"
scalar ExamTaskNetwork_no_CCTV.BrowsingLaptop[0].lo0.lo 	passedUpPk:count 	0
attr interpolationmode  none
attr source  packetSentToUpper
attr title  "packets passed to higher layer, count"
scalar ExamTaskNetwork_no_CCTV.BrowsingLaptop[0].lo0.lo 	passedUpPk:sum(packetBytes) 	0
attr interpolationmode  none
attr source  packetSentToUpper
attr title  "packets passed to higher layer, sum(packetBytes)"
scalar ExamTaskNetwork_no_CCTV.BrowsingLaptop[0].lo0.lo 	droppedPkBitError:count 	0
attr interpolationmode  none
attr source  dropPkBitError
attr title  "packets dropped/bit error, count"
scalar ExamTaskNetwork_no_CCTV.BrowsingLaptop[0].lo0.lo 	droppedPkBitError:sum(packetBytes) 	0
attr interpolationmode  none
attr source  dropPkBitError
attr title  "packets dropped/bit error, sum(packetBytes)"
scalar ExamTaskNetwork_no_CCTV.BrowsingLaptop[0].wlan[0].agent 	dropConfirm:count 	0
attr title  "dropped confirms, count"
scalar ExamTaskNetwork_no_CCTV.BrowsingLaptop[0].wlan[0].agent 	acceptConfirm:count 	36
attr title  "accepted confirms, count"
scalar ExamTaskNetwork_no_CCTV.BrowsingLaptop[0].wlan[0].agent 	sentRequest:count 	36
attr title  "sent requests, count"
scalar ExamTaskNetwork_no_CCTV.BrowsingLaptop[0].wlan[0].mgmt 	dropPkByQueue:count 	0
attr interpolationmode  none
attr source  dropPkByQueue
attr title  "packets dropped by queue, count"
scalar ExamTaskNetwork_no_CCTV.BrowsingLaptop[0].wlan[0].mgmt 	dropPkByQueue:sum(packetBytes) 	0
attr interpolationmode  none
attr source  dropPkByQueue
attr title  "packets dropped by queue, sum(packetBytes)"
scalar ExamTaskNetwork_no_CCTV.BrowsingLaptop[0].wlan[0].mgmt 	dataQueueLen:max 	3
attr interpolationmode  sample-hold
attr title  "data queue length, max"
scalar ExamTaskNetwork_no_CCTV.BrowsingLaptop[0].wlan[0].mgmt 	dataQueueLen:timeavg 	8.9311995503813e-06
attr interpolationmode  sample-hold
attr title  "data queue length, timeavg"
scalar ExamTaskNetwork_no_CCTV.BrowsingLaptop[0].wlan[0].mac 	"number of received packets" 	22855
scalar ExamTaskNetwork_no_CCTV.BrowsingLaptop[0].wlan[0].mac 	"number of collisions" 	45788
scalar ExamTaskNetwork_no_CCTV.BrowsingLaptop[0].wlan[0].mac 	"number of internal collisions" 	0
scalar ExamTaskNetwork_no_CCTV.BrowsingLaptop[0].wlan[0].mac 	"number of retry for AC 0" 	109
scalar ExamTaskNetwork_no_CCTV.BrowsingLaptop[0].wlan[0].mac 	"sent and received bits" 	8650976
scalar ExamTaskNetwork_no_CCTV.BrowsingLaptop[0].wlan[0].mac 	"sent packet within AC 0" 	11085
scalar ExamTaskNetwork_no_CCTV.BrowsingLaptop[0].wlan[0].mac 	"sent in TXOP " 	0
scalar ExamTaskNetwork_no_CCTV.BrowsingLaptop[0].wlan[0].mac 	"sentWithoutRetry AC 0" 	11015
scalar ExamTaskNetwork_no_CCTV.BrowsingLaptop[0].wlan[0].mac 	"numGivenUp AC 0" 	0
scalar ExamTaskNetwork_no_CCTV.BrowsingLaptop[0].wlan[0].mac 	"numDropped AC 0" 	0
scalar ExamTaskNetwork_no_CCTV.BrowsingLaptop[0].wlan[0].mac 	rcvdPkFromHL:count 	11097
attr interpolationmode  none
attr source  packetReceivedFromUpper
attr title  "packets received from higher layer, count"
scalar ExamTaskNetwork_no_CCTV.BrowsingLaptop[0].wlan[0].mac 	rcvdPkFromHL:sum(packetBytes) 	1081372
attr interpolationmode  none
attr source  packetReceivedFromUpper
attr title  "packets received from higher layer, sum(packetBytes)"
scalar ExamTaskNetwork_no_CCTV.BrowsingLaptop[0].wlan[0].mac 	passedUpPk:count 	32782
attr interpolationmode  none
attr source  packetSentToUpper
attr title  "packets passed to higher layer, count"
scalar ExamTaskNetwork_no_CCTV.BrowsingLaptop[0].wlan[0].mac 	passedUpPk:sum(packetBytes) 	19862658
attr interpolationmode  none
attr source  packetSentToUpper
attr title  "packets passed to higher layer, sum(packetBytes)"
scalar ExamTaskNetwork_no_CCTV.BrowsingLaptop[0].wlan[0].mac 	rcvdPkFromLL:count 	3712170
attr interpolationmode  none
attr source  packetReceivedFromLower
attr title  "packets received from lower layer, count"
scalar ExamTaskNetwork_no_CCTV.BrowsingLaptop[0].wlan[0].mac 	rcvdPkFromLL:sum(packetBytes) 	1408313451
attr interpolationmode  none
attr source  packetReceivedFromLower
attr title  "packets received from lower layer, sum(packetBytes)"
scalar ExamTaskNetwork_no_CCTV.BrowsingLaptop[0].wlan[0].mac 	sentDownPk:count 	34061
attr interpolationmode  none
attr source  packetSentToLower
attr title  "packets sent to lower layer, count"
scalar ExamTaskNetwork_no_CCTV.BrowsingLaptop[0].wlan[0].mac 	sentDownPk:sum(packetBytes) 	1445252
attr interpolationmode  none
attr source  packetSentToLower
attr title  "packets sent to lower layer, sum(packetBytes)"
scalar ExamTaskNetwork_no_CCTV.BrowsingLaptop[0].wlan[0].radio 	lossRate:min 	0
attr interpolationmode  backward-sample-hold
attr title  "packet loss rate, min"
scalar ExamTaskNetwork_no_CCTV.BrowsingLaptop[0].wlan[0].radio 	lossRate:max 	0.26
attr interpolationmode  backward-sample-hold
attr title  "packet loss rate, max"
scalar ExamTaskNetwork_no_CCTV.BrowsingLaptop[0].wlan[0].radio 	lossRate:timeavg 	0.01218388744786
attr interpolationmode  backward-sample-hold
attr title  "packet loss rate, timeavg"
statistic ExamTaskNetwork_no_CCTV.BrowsingLaptop[0].wlan[0].radio 	channelNo:histogram
field count 1
field mean 0
field stddev -nan
field sum 0
field sqrsum 0
field min 0
field max 0
attr interpolationmode  sample-hold
attr title  "channel no, histogram"
bin	-INF	0
bin	-0.5	0
bin	-0.46666666666667	0
bin	-0.43333333333333	0
bin	-0.4	0
bin	-0.36666666666667	0
bin	-0.33333333333333	0
bin	-0.3	0
bin	-0.26666666666667	0
bin	-0.23333333333333	0
bin	-0.2	0
bin	-0.16666666666667	0
bin	-0.13333333333333	0
bin	-0.1	0
bin	-0.066666666666667	0
bin	-0.033333333333333	0
bin	0	1
bin	0.033333333333333	0
bin	0.066666666666667	0
bin	0.1	0
bin	0.13333333333333	0
bin	0.16666666666667	0
bin	0.2	0
bin	0.23333333333333	0
bin	0.26666666666667	0
bin	0.3	0
bin	0.33333333333333	0
bin	0.36666666666667	0
bin	0.4	0
bin	0.43333333333333	0
bin	0.46666666666667	0
bin	0.5	0
scalar ExamTaskNetwork_no_CCTV.BrowsingLaptop[0].wlan[0].radio 	radioState:count 	7492590
attr interpolationmode  sample-hold
attr title  "radio state (enum), count"
scalar ExamTaskNetwork_no_CCTV.BrowsingLaptop[0].wlan[0].radio 	bitrate:min 	54000000
attr interpolationmode  sample-hold
attr title  "tx bitrate, min"
attr unit  bps
scalar ExamTaskNetwork_no_CCTV.BrowsingLaptop[0].wlan[0].radio 	bitrate:max 	54000000
attr interpolationmode  sample-hold
attr title  "tx bitrate, max"
attr unit  bps
scalar ExamTaskNetwork_no_CCTV.BrowsingLaptop[0].wlan[0].radio 	bitrate:timeavg 	54000000
attr interpolationmode  sample-hold
attr title  "tx bitrate, timeavg"
attr unit  bps
scalar ExamTaskNetwork_no_CCTV.BrowsingLaptop[0].tcpApp[0] 	numActiveSessions:max 	1
attr interpolationmode  sample-hold
attr source  sum(connect)
attr title  "number of active sessions, max"
scalar ExamTaskNetwork_no_CCTV.BrowsingLaptop[0].tcpApp[0] 	numActiveSessions:timeavg 	0.67804036886615
attr interpolationmode  sample-hold
attr source  sum(connect)
attr title  "number of active sessions, timeavg"
scalar ExamTaskNetwork_no_CCTV.BrowsingLaptop[0].tcpApp[0] 	numSessions:last 	21
attr source  sum(connect+1)/2
attr title  "total number of sessions, last"
scalar ExamTaskNetwork_no_CCTV.BrowsingLaptop[0].tcpApp[0] 	sentPk:count 	21
attr interpolationmode  none
attr source  sentPk
attr title  "packets sent, count"
scalar ExamTaskNetwork_no_CCTV.BrowsingLaptop[0].tcpApp[0] 	sentPk:sum(packetBytes) 	172032
attr interpolationmode  none
attr source  sentPk
attr title  "packets sent, sum(packetBytes)"
scalar ExamTaskNetwork_no_CCTV.BrowsingLaptop[0].tcpApp[0] 	rcvdPk:count 	21
attr interpolationmode  none
attr source  rcvdPk
attr title  "packets received, count"
scalar ExamTaskNetwork_no_CCTV.BrowsingLaptop[0].tcpApp[0] 	rcvdPk:sum(packetBytes) 	15198090
attr interpolationmode  none
attr source  rcvdPk
attr title  "packets received, sum(packetBytes)"
statistic ExamTaskNetwork_no_CCTV.BrowsingLaptop[0].tcpApp[0] 	endToEndDelay:histogram
field count 21
field mean 31.411344623463
field stddev 19.695826436275
field sum 659.63823709272
field sqrsum 28478.63557229
field min 5.933995206778
field max 69.528280926988
attr interpolationmode  none
attr source  messageAge(rcvdPk)
attr title  "end-to-end delay, histogram"
attr unit  s
bin	-INF	0
bin	-25.863147653327	0
bin	-21.623528605313	0
bin	-17.383909557299	0
bin	-13.144290509285	0
bin	-8.904671461271	0
bin	-4.665052413257	0
bin	-0.425433365243	0
bin	3.814185682771	2
bin	8.053804730785	3
bin	12.293423778799	1
bin	16.533042826813	1
bin	20.772661874827	3
bin	25.012280922841	1
bin	29.251899970855	2
bin	33.491519018869	0
bin	37.731138066883	1
bin	41.970757114897	1
bin	46.210376162911	1
bin	50.449995210925	1
bin	54.689614258939	3
bin	58.929233306953	0
bin	63.168852354967	0
bin	67.408471402981	1
bin	71.648090450995	0
bin	75.887709499009	0
bin	80.127328547023	0
bin	84.366947595037	0
bin	88.606566643051	0
bin	92.846185691065	0
bin	97.085804739079	0
bin	101.32542378709	0
scalar ExamTaskNetwork_no_CCTV.BrowsingLaptop[1].networkLayer.arp 	initiatedARPResolution:count 	8
attr title  "ARP initiated resolutions, count"
scalar ExamTaskNetwork_no_CCTV.BrowsingLaptop[1].networkLayer.arp 	sentReply:count 	4
attr title  "ARP replies sent, count"
scalar ExamTaskNetwork_no_CCTV.BrowsingLaptop[1].networkLayer.arp 	sentReq:count 	8
attr title  "ARP request sent, count"
scalar ExamTaskNetwork_no_CCTV.BrowsingLaptop[1].networkLayer.arp 	failedARPResolution:count 	0
attr title  "ARP failed resolutions, count"
scalar ExamTaskNetwork_no_CCTV.BrowsingLaptop[1].networkLayer.arp 	completedARPResolution:count 	165
attr title  "ARP completed resolutions, count"
scalar ExamTaskNetwork_no_CCTV.BrowsingLaptop[1].lo0.lo 	rcvdPkFromHL:count 	0
attr interpolationmode  none
attr source  packetReceivedFromUpper
attr title  "packets received from higher layer, count"
scalar ExamTaskNetwork_no_CCTV.BrowsingLaptop[1].lo0.lo 	rcvdPkFromHL:sum(packetBytes) 	0
attr interpolationmode  none
attr source  packetReceivedFromUpper
attr title  "packets received from higher layer, sum(packetBytes)"
scalar ExamTaskNetwork_no_CCTV.BrowsingLaptop[1].lo0.lo 	passedUpPk:count 	0
attr interpolationmode  none
attr source  packetSentToUpper
attr title  "packets passed to higher layer, count"
scalar ExamTaskNetwork_no_CCTV.BrowsingLaptop[1].lo0.lo 	passedUpPk:sum(packetBytes) 	0
attr interpolationmode  none
attr source  packetSentToUpper
attr title  "packets passed to higher layer, sum(packetBytes)"
scalar ExamTaskNetwork_no_CCTV.BrowsingLaptop[1].lo0.lo 	droppedPkBitError:count 	0
attr interpolationmode  none
attr source  dropPkBitError
attr title  "packets dropped/bit error, count"
scalar ExamTaskNetwork_no_CCTV.BrowsingLaptop[1].lo0.lo 	droppedPkBitError:sum(packetBytes) 	0
attr interpolationmode  none
attr source  dropPkBitError
attr title  "packets dropped/bit error, sum(packetBytes)"
scalar ExamTaskNetwork_no_CCTV.BrowsingLaptop[1].wlan[0].agent 	dropConfirm:count 	0
attr title  "dropped confirms, count"
scalar ExamTaskNetwork_no_CCTV.BrowsingLaptop[1].wlan[0].agent 	acceptConfirm:count 	36
attr title  "accepted confirms, count"
scalar ExamTaskNetwork_no_CCTV.BrowsingLaptop[1].wlan[0].agent 	sentRequest:count 	36
attr title  "sent requests, count"
scalar ExamTaskNetwork_no_CCTV.BrowsingLaptop[1].wlan[0].mgmt 	dropPkByQueue:count 	96
attr interpolationmode  none
attr source  dropPkByQueue
attr title  "packets dropped by queue, count"
scalar ExamTaskNetwork_no_CCTV.BrowsingLaptop[1].wlan[0].mgmt 	dropPkByQueue:sum(packetBytes) 	9406
attr interpolationmode  none
attr source  dropPkByQueue
attr title  "packets dropped by queue, sum(packetBytes)"
scalar ExamTaskNetwork_no_CCTV.BrowsingLaptop[1].wlan[0].mgmt 	dataQueueLen:max 	50
attr interpolationmode  sample-hold
attr title  "data queue length, max"
scalar ExamTaskNetwork_no_CCTV.BrowsingLaptop[1].wlan[0].mgmt 	dataQueueLen:timeavg 	0.011915951881201
attr interpolationmode  sample-hold
attr title  "data queue length, timeavg"
scalar ExamTaskNetwork_no_CCTV.BrowsingLaptop[1].wlan[0].mac 	"number of received packets" 	20688
scalar ExamTaskNetwork_no_CCTV.BrowsingLaptop[1].wlan[0].mac 	"number of collisions" 	77225
scalar ExamTaskNetwork_no_CCTV.BrowsingLaptop[1].wlan[0].mac 	"number of internal collisions" 	0
scalar ExamTaskNetwork_no_CCTV.BrowsingLaptop[1].wlan[0].mac 	"number of retry for AC 0" 	304
scalar ExamTaskNetwork_no_CCTV.BrowsingLaptop[1].wlan[0].mac 	"sent and received bits" 	8368560
scalar ExamTaskNetwork_no_CCTV.BrowsingLaptop[1].wlan[0].mac 	"sent packet within AC 0" 	10893
scalar ExamTaskNetwork_no_CCTV.BrowsingLaptop[1].wlan[0].mac 	"sent in TXOP " 	0
scalar ExamTaskNetwork_no_CCTV.BrowsingLaptop[1].wlan[0].mac 	"sentWithoutRetry AC 0" 	10641
scalar ExamTaskNetwork_no_CCTV.BrowsingLaptop[1].wlan[0].mac 	"numGivenUp AC 0" 	0
scalar ExamTaskNetwork_no_CCTV.BrowsingLaptop[1].wlan[0].mac 	"numDropped AC 0" 	0
scalar ExamTaskNetwork_no_CCTV.BrowsingLaptop[1].wlan[0].mac 	rcvdPkFromHL:count 	10905
attr interpolationmode  none
attr source  packetReceivedFromUpper
attr title  "packets received from higher layer, count"
scalar ExamTaskNetwork_no_CCTV.BrowsingLaptop[1].wlan[0].mac 	rcvdPkFromHL:sum(packetBytes) 	1046070
attr interpolationmode  none
attr source  packetReceivedFromUpper
attr title  "packets received from higher layer, sum(packetBytes)"
scalar ExamTaskNetwork_no_CCTV.BrowsingLaptop[1].wlan[0].mac 	passedUpPk:count 	30616
attr interpolationmode  none
attr source  packetSentToUpper
attr title  "packets passed to higher layer, count"
scalar ExamTaskNetwork_no_CCTV.BrowsingLaptop[1].wlan[0].mac 	passedUpPk:sum(packetBytes) 	18025451
attr interpolationmode  none
attr source  packetSentToUpper
attr title  "packets passed to higher layer, sum(packetBytes)"
scalar ExamTaskNetwork_no_CCTV.BrowsingLaptop[1].wlan[0].mac 	rcvdPkFromLL:count 	3714334
attr interpolationmode  none
attr source  packetReceivedFromLower
attr title  "packets received from lower layer, count"
scalar ExamTaskNetwork_no_CCTV.BrowsingLaptop[1].wlan[0].mac 	rcvdPkFromLL:sum(packetBytes) 	1407859332
attr interpolationmode  none
attr source  packetReceivedFromLower
attr title  "packets received from lower layer, sum(packetBytes)"
scalar ExamTaskNetwork_no_CCTV.BrowsingLaptop[1].wlan[0].mac 	sentDownPk:count 	31897
attr interpolationmode  none
attr source  packetSentToLower
attr title  "packets sent to lower layer, count"
scalar ExamTaskNetwork_no_CCTV.BrowsingLaptop[1].wlan[0].mac 	sentDownPk:sum(packetBytes) 	1386084
attr interpolationmode  none
attr source  packetSentToLower
attr title  "packets sent to lower layer, sum(packetBytes)"
scalar ExamTaskNetwork_no_CCTV.BrowsingLaptop[1].wlan[0].radio 	lossRate:min 	0
attr interpolationmode  backward-sample-hold
attr title  "packet loss rate, min"
scalar ExamTaskNetwork_no_CCTV.BrowsingLaptop[1].wlan[0].radio 	lossRate:max 	0.28
attr interpolationmode  backward-sample-hold
attr title  "packet loss rate, max"
scalar ExamTaskNetwork_no_CCTV.BrowsingLaptop[1].wlan[0].radio 	lossRate:timeavg 	0.020518029869108
attr interpolationmode  backward-sample-hold
attr title  "packet loss rate, timeavg"
statistic ExamTaskNetwork_no_CCTV.BrowsingLaptop[1].wlan[0].radio 	channelNo:histogram
field count 1
field mean 0
field stddev -nan
field sum 0
field sqrsum 0
field min 0
field max 0
attr interpolationmode  sample-hold
attr title  "channel no, histogram"
bin	-INF	0
bin	-0.5	0
bin	-0.46666666666667	0
bin	-0.43333333333333	0
bin	-0.4	0
bin	-0.36666666666667	0
bin	-0.33333333333333	0
bin	-0.3	0
bin	-0.26666666666667	0
bin	-0.23333333333333	0
bin	-0.2	0
bin	-0.16666666666667	0
bin	-0.13333333333333	0
bin	-0.1	0
bin	-0.066666666666667	0
bin	-0.033333333333333	0
bin	0	1
bin	0.033333333333333	0
bin	0.066666666666667	0
bin	0.1	0
bin	0.13333333333333	0
bin	0.16666666666667	0
bin	0.2	0
bin	0.23333333333333	0
bin	0.26666666666667	0
bin	0.3	0
bin	0.33333333333333	0
bin	0.36666666666667	0
bin	0.4	0
bin	0.43333333333333	0
bin	0.46666666666667	0
bin	0.5	0
scalar ExamTaskNetwork_no_CCTV.BrowsingLaptop[1].wlan[0].radio 	radioState:count 	7492826
attr interpolationmode  sample-hold
attr title  "radio state (enum), count"
scalar ExamTaskNetwork_no_CCTV.BrowsingLaptop[1].wlan[0].radio 	bitrate:min 	54000000
attr interpolationmode  sample-hold
attr title  "tx bitrate, min"
attr unit  bps
scalar ExamTaskNetwork_no_CCTV.BrowsingLaptop[1].wlan[0].radio 	bitrate:max 	54000000
attr interpolationmode  sample-hold
attr title  "tx bitrate, max"
attr unit  bps
scalar ExamTaskNetwork_no_CCTV.BrowsingLaptop[1].wlan[0].radio 	bitrate:timeavg 	54000000
attr interpolationmode  sample-hold
attr title  "tx bitrate, timeavg"
attr unit  bps
scalar ExamTaskNetwork_no_CCTV.BrowsingLaptop[1].tcpApp[0] 	numActiveSessions:max 	1
attr interpolationmode  sample-hold
attr source  sum(connect)
attr title  "number of active sessions, max"
scalar ExamTaskNetwork_no_CCTV.BrowsingLaptop[1].tcpApp[0] 	numActiveSessions:timeavg 	0.7039259555089
attr interpolationmode  sample-hold
attr source  sum(connect)
attr title  "number of active sessions, timeavg"
scalar ExamTaskNetwork_no_CCTV.BrowsingLaptop[1].tcpApp[0] 	numSessions:last 	17
attr source  sum(connect+1)/2
attr title  "total number of sessions, last"
scalar ExamTaskNetwork_no_CCTV.BrowsingLaptop[1].tcpApp[0] 	sentPk:count 	17
attr interpolationmode  none
attr source  sentPk
attr title  "packets sent, count"
scalar ExamTaskNetwork_no_CCTV.BrowsingLaptop[1].tcpApp[0] 	sentPk:sum(packetBytes) 	139264
attr interpolationmode  none
attr source  sentPk
attr title  "packets sent, sum(packetBytes)"
scalar ExamTaskNetwork_no_CCTV.BrowsingLaptop[1].tcpApp[0] 	rcvdPk:count 	16
attr interpolationmode  none
attr source  rcvdPk
attr title  "packets received, count"
scalar ExamTaskNetwork_no_CCTV.BrowsingLaptop[1].tcpApp[0] 	rcvdPk:sum(packetBytes) 	13979603
attr interpolationmode  none
attr source  rcvdPk
attr title  "packets received, sum(packetBytes)"
statistic ExamTaskNetwork_no_CCTV.BrowsingLaptop[1].tcpApp[0] 	endToEndDelay:histogram
field count 16
field mean 43.459787912579
field stddev 30.075457674201
field sum 695.35660660126
field sqrsum 43788.047961191
field min 5.631269358696
field max 105.45312761151
attr interpolationmode  none
attr source  messageAge(rcvdPk)
attr title  "end-to-end delay, histogram"
attr unit  s
bin	-INF	0
bin	-44.279659767711	0
bin	-37.624869217523	0
bin	-30.970078667336	0
bin	-24.315288117148	0
bin	-17.660497566961	0
bin	-11.005707016773	0
bin	-4.3509164665854	0
bin	2.3038740836022	1
bin	8.9586646337898	1
bin	15.613455183977	4
bin	22.268245734165	0
bin	28.923036284353	3
bin	35.57782683454	1
bin	42.232617384728	0
bin	48.887407934915	0
bin	55.542198485103	1
bin	62.196989035291	1
bin	68.851779585478	1
bin	75.506570135666	1
bin	82.161360685853	1
bin	88.816151236041	0
bin	95.470941786229	0
bin	102.12573233642	1
bin	108.7805228866	0
bin	115.43531343679	0
bin	122.09010398698	0
bin	128.74489453717	0
bin	135.39968508735	0
bin	142.05447563754	0
bin	148.70926618773	0
bin	155.36405673792	0
scalar ExamTaskNetwork_no_CCTV.BrowsingLaptop[2].networkLayer.arp 	initiatedARPResolution:count 	8
attr title  "ARP initiated resolutions, count"
scalar ExamTaskNetwork_no_CCTV.BrowsingLaptop[2].networkLayer.arp 	sentReply:count 	5
attr title  "ARP replies sent, count"
scalar ExamTaskNetwork_no_CCTV.BrowsingLaptop[2].networkLayer.arp 	sentReq:count 	8
attr title  "ARP request sent, count"
scalar ExamTaskNetwork_no_CCTV.BrowsingLaptop[2].networkLayer.arp 	failedARPResolution:count 	0
attr title  "ARP failed resolutions, count"
scalar ExamTaskNetwork_no_CCTV.BrowsingLaptop[2].networkLayer.arp 	completedARPResolution:count 	159
attr title  "ARP completed resolutions, count"
scalar ExamTaskNetwork_no_CCTV.BrowsingLaptop[2].lo0.lo 	rcvdPkFromHL:count 	0
attr interpolationmode  none
attr source  packetReceivedFromUpper
attr title  "packets received from higher layer, count"
scalar ExamTaskNetwork_no_CCTV.BrowsingLaptop[2].lo0.lo 	rcvdPkFromHL:sum(packetBytes) 	0
attr interpolationmode  none
attr source  packetReceivedFromUpper
attr title  "packets received from higher layer, sum(packetBytes)"
scalar ExamTaskNetwork_no_CCTV.BrowsingLaptop[2].lo0.lo 	passedUpPk:count 	0
attr interpolationmode  none
attr source  packetSentToUpper
attr title  "packets passed to higher layer, count"
scalar ExamTaskNetwork_no_CCTV.BrowsingLaptop[2].lo0.lo 	passedUpPk:sum(packetBytes) 	0
attr interpolationmode  none
attr source  packetSentToUpper
attr title  "packets passed to higher layer, sum(packetBytes)"
scalar ExamTaskNetwork_no_CCTV.BrowsingLaptop[2].lo0.lo 	droppedPkBitError:count 	0
attr interpolationmode  none
attr source  dropPkBitError
attr title  "packets dropped/bit error, count"
scalar ExamTaskNetwork_no_CCTV.BrowsingLaptop[2].lo0.lo 	droppedPkBitError:sum(packetBytes) 	0
attr interpolationmode  none
attr source  dropPkBitError
attr title  "packets dropped/bit error, sum(packetBytes)"
scalar ExamTaskNetwork_no_CCTV.BrowsingLaptop[2].wlan[0].agent 	dropConfirm:count 	0
attr title  "dropped confirms, count"
scalar ExamTaskNetwork_no_CCTV.BrowsingLaptop[2].wlan[0].agent 	acceptConfirm:count 	36
attr title  "accepted confirms, count"
scalar ExamTaskNetwork_no_CCTV.BrowsingLaptop[2].wlan[0].agent 	sentRequest:count 	36
attr title  "sent requests, count"
scalar ExamTaskNetwork_no_CCTV.BrowsingLaptop[2].wlan[0].mgmt 	dropPkByQueue:count 	0
attr interpolationmode  none
attr source  dropPkByQueue
attr title  "packets dropped by queue, count"
scalar ExamTaskNetwork_no_CCTV.BrowsingLaptop[2].wlan[0].mgmt 	dropPkByQueue:sum(packetBytes) 	0
attr interpolationmode  none
attr source  dropPkByQueue
attr title  "packets dropped by queue, sum(packetBytes)"
scalar ExamTaskNetwork_no_CCTV.BrowsingLaptop[2].wlan[0].mgmt 	dataQueueLen:max 	9
attr interpolationmode  sample-hold
attr title  "data queue length, max"
scalar ExamTaskNetwork_no_CCTV.BrowsingLaptop[2].wlan[0].mgmt 	dataQueueLen:timeavg 	5.7975651850884e-05
attr interpolationmode  sample-hold
attr title  "data queue length, timeavg"
scalar ExamTaskNetwork_no_CCTV.BrowsingLaptop[2].wlan[0].mac 	"number of received packets" 	16957
scalar ExamTaskNetwork_no_CCTV.BrowsingLaptop[2].wlan[0].mac 	"number of collisions" 	45354
scalar ExamTaskNetwork_no_CCTV.BrowsingLaptop[2].wlan[0].mac 	"number of internal collisions" 	0
scalar ExamTaskNetwork_no_CCTV.BrowsingLaptop[2].wlan[0].mac 	"number of retry for AC 0" 	117
scalar ExamTaskNetwork_no_CCTV.BrowsingLaptop[2].wlan[0].mac 	"sent and received bits" 	6712560
scalar ExamTaskNetwork_no_CCTV.BrowsingLaptop[2].wlan[0].mac 	"sent packet within AC 0" 	8294
scalar ExamTaskNetwork_no_CCTV.BrowsingLaptop[2].wlan[0].mac 	"sent in TXOP " 	0
scalar ExamTaskNetwork_no_CCTV.BrowsingLaptop[2].wlan[0].mac 	"sentWithoutRetry AC 0" 	8220
scalar ExamTaskNetwork_no_CCTV.BrowsingLaptop[2].wlan[0].mac 	"numGivenUp AC 0" 	0
scalar ExamTaskNetwork_no_CCTV.BrowsingLaptop[2].wlan[0].mac 	"numDropped AC 0" 	0
scalar ExamTaskNetwork_no_CCTV.BrowsingLaptop[2].wlan[0].mac 	rcvdPkFromHL:count 	8306
attr interpolationmode  none
attr source  packetReceivedFromUpper
attr title  "packets received from higher layer, count"
scalar ExamTaskNetwork_no_CCTV.BrowsingLaptop[2].wlan[0].mac 	rcvdPkFromHL:sum(packetBytes) 	839070
attr interpolationmode  none
attr source  packetReceivedFromUpper
attr title  "packets received from higher layer, sum(packetBytes)"
scalar ExamTaskNetwork_no_CCTV.BrowsingLaptop[2].wlan[0].mac 	passedUpPk:count 	26883
attr interpolationmode  none
attr source  packetSentToUpper
attr title  "packets passed to higher layer, count"
scalar ExamTaskNetwork_no_CCTV.BrowsingLaptop[2].wlan[0].mac 	passedUpPk:sum(packetBytes) 	14862478
attr interpolationmode  none
attr source  packetSentToUpper
attr title  "packets passed to higher layer, sum(packetBytes)"
scalar ExamTaskNetwork_no_CCTV.BrowsingLaptop[2].wlan[0].mac 	rcvdPkFromLL:count 	3720851
attr interpolationmode  none
attr source  packetReceivedFromLower
attr title  "packets received from lower layer, count"
scalar ExamTaskNetwork_no_CCTV.BrowsingLaptop[2].wlan[0].mac 	rcvdPkFromLL:sum(packetBytes) 	1408270673
attr interpolationmode  none
attr source  packetReceivedFromLower
attr title  "packets received from lower layer, sum(packetBytes)"
scalar ExamTaskNetwork_no_CCTV.BrowsingLaptop[2].wlan[0].mac 	sentDownPk:count 	25380
attr interpolationmode  none
attr source  packetSentToLower
attr title  "packets sent to lower layer, count"
scalar ExamTaskNetwork_no_CCTV.BrowsingLaptop[2].wlan[0].mac 	sentDownPk:sum(packetBytes) 	1113274
attr interpolationmode  none
attr source  packetSentToLower
attr title  "packets sent to lower layer, sum(packetBytes)"
scalar ExamTaskNetwork_no_CCTV.BrowsingLaptop[2].wlan[0].radio 	lossRate:min 	0
attr interpolationmode  backward-sample-hold
attr title  "packet loss rate, min"
scalar ExamTaskNetwork_no_CCTV.BrowsingLaptop[2].wlan[0].radio 	lossRate:max 	0.28
attr interpolationmode  backward-sample-hold
attr title  "packet loss rate, max"
scalar ExamTaskNetwork_no_CCTV.BrowsingLaptop[2].wlan[0].radio 	lossRate:timeavg 	0.012058450629319
attr interpolationmode  backward-sample-hold
attr title  "packet loss rate, timeavg"
statistic ExamTaskNetwork_no_CCTV.BrowsingLaptop[2].wlan[0].radio 	channelNo:histogram
field count 1
field mean 0
field stddev -nan
field sum 0
field sqrsum 0
field min 0
field max 0
attr interpolationmode  sample-hold
attr title  "channel no, histogram"
bin	-INF	0
bin	-0.5	0
bin	-0.46666666666667	0
bin	-0.43333333333333	0
bin	-0.4	0
bin	-0.36666666666667	0
bin	-0.33333333333333	0
bin	-0.3	0
bin	-0.26666666666667	0
bin	-0.23333333333333	0
bin	-0.2	0
bin	-0.16666666666667	0
bin	-0.13333333333333	0
bin	-0.1	0
bin	-0.066666666666667	0
bin	-0.033333333333333	0
bin	0	1
bin	0.033333333333333	0
bin	0.066666666666667	0
bin	0.1	0
bin	0.13333333333333	0
bin	0.16666666666667	0
bin	0.2	0
bin	0.23333333333333	0
bin	0.26666666666667	0
bin	0.3	0
bin	0.33333333333333	0
bin	0.36666666666667	0
bin	0.4	0
bin	0.43333333333333	0
bin	0.46666666666667	0
bin	0.5	0
scalar ExamTaskNetwork_no_CCTV.BrowsingLaptop[2].wlan[0].radio 	radioState:count 	7492597
attr interpolationmode  sample-hold
attr title  "radio state (enum), count"
scalar ExamTaskNetwork_no_CCTV.BrowsingLaptop[2].wlan[0].radio 	bitrate:min 	54000000
attr interpolationmode  sample-hold
attr title  "tx bitrate, min"
attr unit  bps
scalar ExamTaskNetwork_no_CCTV.BrowsingLaptop[2].wlan[0].radio 	bitrate:max 	54000000
attr interpolationmode  sample-hold
attr title  "tx bitrate, max"
attr unit  bps
scalar ExamTaskNetwork_no_CCTV.BrowsingLaptop[2].wlan[0].radio 	bitrate:timeavg 	54000000
attr interpolationmode  sample-hold
attr title  "tx bitrate, timeavg"
attr unit  bps
scalar ExamTaskNetwork_no_CCTV.BrowsingLaptop[2].tcpApp[0] 	numActiveSessions:max 	1
attr interpolationmode  sample-hold
attr source  sum(connect)
attr title  "number of active sessions, max"
scalar ExamTaskNetwork_no_CCTV.BrowsingLaptop[2].tcpApp[0] 	numActiveSessions:timeavg 	0.63081113592966
attr interpolationmode  sample-hold
attr source  sum(connect)
attr title  "number of active sessions, timeavg"
scalar ExamTaskNetwork_no_CCTV.BrowsingLaptop[2].tcpApp[0] 	numSessions:last 	19
attr source  sum(connect+1)/2
attr title  "total number of sessions, last"
scalar ExamTaskNetwork_no_CCTV.BrowsingLaptop[2].tcpApp[0] 	sentPk:count 	19
attr interpolationmode  none
attr source  sentPk
attr title  "packets sent, count"
scalar ExamTaskNetwork_no_CCTV.BrowsingLaptop[2].tcpApp[0] 	sentPk:sum(packetBytes) 	155648
attr interpolationmode  none
attr source  sentPk
attr title  "packets sent, sum(packetBytes)"
scalar ExamTaskNetwork_no_CCTV.BrowsingLaptop[2].tcpApp[0] 	rcvdPk:count 	18
attr interpolationmode  none
attr source  rcvdPk
attr title  "packets received, count"
scalar ExamTaskNetwork_no_CCTV.BrowsingLaptop[2].tcpApp[0] 	rcvdPk:sum(packetBytes) 	10036117
attr interpolationmode  none
attr source  rcvdPk
attr title  "packets received, sum(packetBytes)"
statistic ExamTaskNetwork_no_CCTV.BrowsingLaptop[2].tcpApp[0] 	endToEndDelay:histogram
field count 18
field mean 29.413404187135
field stddev 31.751650340296
field sum 529.44127536842
field sqrsum 32711.514314415
field min 0.334375704452
field max 136.27188279134
attr interpolationmode  none
attr source  messageAge(rcvdPk)
attr title  "end-to-end delay, histogram"
attr unit  s
bin	-INF	0
bin	-67.634377838993	0
bin	-58.571877366534	0
bin	-49.509376894074	0
bin	-40.446876421615	0
bin	-31.384375949156	0
bin	-22.321875476696	0
bin	-13.259375004237	0
bin	-4.1968745317777	3
bin	4.8656259406817	2
bin	13.928126413141	3
bin	22.9906268856	4
bin	32.05312735806	2
bin	41.115627830519	2
bin	50.178128302978	0
bin	59.240628775438	1
bin	68.303129247897	0
bin	77.365629720356	0
bin	86.428130192816	0
bin	95.490630665275	0
bin	104.55313113773	0
bin	113.61563161019	0
bin	122.67813208265	0
bin	131.74063255511	1
bin	140.80313302757	0
bin	149.86563350003	0
bin	158.92813397249	0
bin	167.99063444495	0
bin	177.05313491741	0
bin	186.11563538987	0
bin	195.17813586233	0
bin	204.24063633479	0
scalar ExamTaskNetwork_no_CCTV.BrowsingLaptop[3].networkLayer.arp 	initiatedARPResolution:count 	8
attr title  "ARP initiated resolutions, count"
scalar ExamTaskNetwork_no_CCTV.BrowsingLaptop[3].networkLayer.arp 	sentReply:count 	4
attr title  "ARP replies sent, count"
scalar ExamTaskNetwork_no_CCTV.BrowsingLaptop[3].networkLayer.arp 	sentReq:count 	8
attr title  "ARP request sent, count"
scalar ExamTaskNetwork_no_CCTV.BrowsingLaptop[3].networkLayer.arp 	failedARPResolution:count 	0
attr title  "ARP failed resolutions, count"
scalar ExamTaskNetwork_no_CCTV.BrowsingLaptop[3].networkLayer.arp 	completedARPResolution:count 	175
attr title  "ARP completed resolutions, count"
scalar ExamTaskNetwork_no_CCTV.BrowsingLaptop[3].lo0.lo 	rcvdPkFromHL:count 	0
attr interpolationmode  none
attr source  packetReceivedFromUpper
attr title  "packets received from higher layer, count"
scalar ExamTaskNetwork_no_CCTV.BrowsingLaptop[3].lo0.lo 	rcvdPkFromHL:sum(packetBytes) 	0
attr interpolationmode  none
attr source  packetReceivedFromUpper
attr title  "packets received from higher layer, sum(packetBytes)"
scalar ExamTaskNetwork_no_CCTV.BrowsingLaptop[3].lo0.lo 	passedUpPk:count 	0
attr interpolationmode  none
attr source  packetSentToUpper
attr title  "packets passed to higher layer, count"
scalar ExamTaskNetwork_no_CCTV.BrowsingLaptop[3].lo0.lo 	passedUpPk:sum(packetBytes) 	0
attr interpolationmode  none
attr source  packetSentToUpper
attr title  "packets passed to higher layer, sum(packetBytes)"
scalar ExamTaskNetwork_no_CCTV.BrowsingLaptop[3].lo0.lo 	droppedPkBitError:count 	0
attr interpolationmode  none
attr source  dropPkBitError
attr title  "packets dropped/bit error, count"
scalar ExamTaskNetwork_no_CCTV.BrowsingLaptop[3].lo0.lo 	droppedPkBitError:sum(packetBytes) 	0
attr interpolationmode  none
attr source  dropPkBitError
attr title  "packets dropped/bit error, sum(packetBytes)"
scalar ExamTaskNetwork_no_CCTV.BrowsingLaptop[3].wlan[0].agent 	dropConfirm:count 	0
attr title  "dropped confirms, count"
scalar ExamTaskNetwork_no_CCTV.BrowsingLaptop[3].wlan[0].agent 	acceptConfirm:count 	36
attr title  "accepted confirms, count"
scalar ExamTaskNetwork_no_CCTV.BrowsingLaptop[3].wlan[0].agent 	sentRequest:count 	36
attr title  "sent requests, count"
scalar ExamTaskNetwork_no_CCTV.BrowsingLaptop[3].wlan[0].mgmt 	dropPkByQueue:count 	17
attr interpolationmode  none
attr source  dropPkByQueue
attr title  "packets dropped by queue, count"
scalar ExamTaskNetwork_no_CCTV.BrowsingLaptop[3].wlan[0].mgmt 	dropPkByQueue:sum(packetBytes) 	1666
attr interpolationmode  none
attr source  dropPkByQueue
attr title  "packets dropped by queue, sum(packetBytes)"
scalar ExamTaskNetwork_no_CCTV.BrowsingLaptop[3].wlan[0].mgmt 	dataQueueLen:max 	50
attr interpolationmode  sample-hold
attr title  "data queue length, max"
scalar ExamTaskNetwork_no_CCTV.BrowsingLaptop[3].wlan[0].mgmt 	dataQueueLen:timeavg 	0.010550922645506
attr interpolationmode  sample-hold
attr title  "data queue length, timeavg"
scalar ExamTaskNetwork_no_CCTV.BrowsingLaptop[3].wlan[0].mac 	"number of received packets" 	14834
scalar ExamTaskNetwork_no_CCTV.BrowsingLaptop[3].wlan[0].mac 	"number of collisions" 	48199
scalar ExamTaskNetwork_no_CCTV.BrowsingLaptop[3].wlan[0].mac 	"number of internal collisions" 	0
scalar ExamTaskNetwork_no_CCTV.BrowsingLaptop[3].wlan[0].mac 	"number of retry for AC 0" 	274
scalar ExamTaskNetwork_no_CCTV.BrowsingLaptop[3].wlan[0].mac 	"sent and received bits" 	6492016
scalar ExamTaskNetwork_no_CCTV.BrowsingLaptop[3].wlan[0].mac 	"sent packet within AC 0" 	7934
scalar ExamTaskNetwork_no_CCTV.BrowsingLaptop[3].wlan[0].mac 	"sent in TXOP " 	0
scalar ExamTaskNetwork_no_CCTV.BrowsingLaptop[3].wlan[0].mac 	"sentWithoutRetry AC 0" 	7733
scalar ExamTaskNetwork_no_CCTV.BrowsingLaptop[3].wlan[0].mac 	"numGivenUp AC 0" 	0
scalar ExamTaskNetwork_no_CCTV.BrowsingLaptop[3].wlan[0].mac 	"numDropped AC 0" 	0
scalar ExamTaskNetwork_no_CCTV.BrowsingLaptop[3].wlan[0].mac 	rcvdPkFromHL:count 	7946
attr interpolationmode  none
attr source  packetReceivedFromUpper
attr title  "packets received from higher layer, count"
scalar ExamTaskNetwork_no_CCTV.BrowsingLaptop[3].wlan[0].mac 	rcvdPkFromHL:sum(packetBytes) 	811502
attr interpolationmode  none
attr source  packetReceivedFromUpper
attr title  "packets received from higher layer, sum(packetBytes)"
scalar ExamTaskNetwork_no_CCTV.BrowsingLaptop[3].wlan[0].mac 	passedUpPk:count 	24763
attr interpolationmode  none
attr source  packetSentToUpper
attr title  "packets passed to higher layer, count"
scalar ExamTaskNetwork_no_CCTV.BrowsingLaptop[3].wlan[0].mac 	passedUpPk:sum(packetBytes) 	13097260
attr interpolationmode  none
attr source  packetSentToUpper
attr title  "packets passed to higher layer, sum(packetBytes)"
scalar ExamTaskNetwork_no_CCTV.BrowsingLaptop[3].wlan[0].mac 	rcvdPkFromLL:count 	3723177
attr interpolationmode  none
attr source  packetReceivedFromLower
attr title  "packets received from lower layer, count"
scalar ExamTaskNetwork_no_CCTV.BrowsingLaptop[3].wlan[0].mac 	rcvdPkFromLL:sum(packetBytes) 	1408589958
attr interpolationmode  none
attr source  packetReceivedFromLower
attr title  "packets received from lower layer, sum(packetBytes)"
scalar ExamTaskNetwork_no_CCTV.BrowsingLaptop[3].wlan[0].mac 	sentDownPk:count 	23054
attr interpolationmode  none
attr source  packetSentToLower
attr title  "packets sent to lower layer, count"
scalar ExamTaskNetwork_no_CCTV.BrowsingLaptop[3].wlan[0].mac 	sentDownPk:sum(packetBytes) 	1069206
attr interpolationmode  none
attr source  packetSentToLower
attr title  "packets sent to lower layer, sum(packetBytes)"
scalar ExamTaskNetwork_no_CCTV.BrowsingLaptop[3].wlan[0].radio 	lossRate:min 	0
attr interpolationmode  backward-sample-hold
attr title  "packet loss rate, min"
scalar ExamTaskNetwork_no_CCTV.BrowsingLaptop[3].wlan[0].radio 	lossRate:max 	0.24
attr interpolationmode  backward-sample-hold
attr title  "packet loss rate, max"
scalar ExamTaskNetwork_no_CCTV.BrowsingLaptop[3].wlan[0].radio 	lossRate:timeavg 	0.012783948368292
attr interpolationmode  backward-sample-hold
attr title  "packet loss rate, timeavg"
statistic ExamTaskNetwork_no_CCTV.BrowsingLaptop[3].wlan[0].radio 	channelNo:histogram
field count 1
field mean 0
field stddev -nan
field sum 0
field sqrsum 0
field min 0
field max 0
attr interpolationmode  sample-hold
attr title  "channel no, histogram"
bin	-INF	0
bin	-0.5	0
bin	-0.46666666666667	0
bin	-0.43333333333333	0
bin	-0.4	0
bin	-0.36666666666667	0
bin	-0.33333333333333	0
bin	-0.3	0
bin	-0.26666666666667	0
bin	-0.23333333333333	0
bin	-0.2	0
bin	-0.16666666666667	0
bin	-0.13333333333333	0
bin	-0.1	0
bin	-0.066666666666667	0
bin	-0.033333333333333	0
bin	0	1
bin	0.033333333333333	0
bin	0.066666666666667	0
bin	0.1	0
bin	0.13333333333333	0
bin	0.16666666666667	0
bin	0.2	0
bin	0.23333333333333	0
bin	0.26666666666667	0
bin	0.3	0
bin	0.33333333333333	0
bin	0.36666666666667	0
bin	0.4	0
bin	0.43333333333333	0
bin	0.46666666666667	0
bin	0.5	0
scalar ExamTaskNetwork_no_CCTV.BrowsingLaptop[3].wlan[0].radio 	radioState:count 	7492806
attr interpolationmode  sample-hold
attr title  "radio state (enum), count"
scalar ExamTaskNetwork_no_CCTV.BrowsingLaptop[3].wlan[0].radio 	bitrate:min 	54000000
attr interpolationmode  sample-hold
attr title  "tx bitrate, min"
attr unit  bps
scalar ExamTaskNetwork_no_CCTV.BrowsingLaptop[3].wlan[0].radio 	bitrate:max 	54000000
attr interpolationmode  sample-hold
attr title  "tx bitrate, max"
attr unit  bps
scalar ExamTaskNetwork_no_CCTV.BrowsingLaptop[3].wlan[0].radio 	bitrate:timeavg 	54000000
attr interpolationmode  sample-hold
attr title  "tx bitrate, timeavg"
attr unit  bps
scalar ExamTaskNetwork_no_CCTV.BrowsingLaptop[3].tcpApp[0] 	numActiveSessions:max 	1
attr interpolationmode  sample-hold
attr source  sum(connect)
attr title  "number of active sessions, max"
scalar ExamTaskNetwork_no_CCTV.BrowsingLaptop[3].tcpApp[0] 	numActiveSessions:timeavg 	0.56962422625374
attr interpolationmode  sample-hold
attr source  sum(connect)
attr title  "number of active sessions, timeavg"
scalar ExamTaskNetwork_no_CCTV.BrowsingLaptop[3].tcpApp[0] 	numSessions:last 	18
attr source  sum(connect+1)/2
attr title  "total number of sessions, last"
scalar ExamTaskNetwork_no_CCTV.BrowsingLaptop[3].tcpApp[0] 	sentPk:count 	18
attr interpolationmode  none
attr source  sentPk
attr title  "packets sent, count"
scalar ExamTaskNetwork_no_CCTV.BrowsingLaptop[3].tcpApp[0] 	sentPk:sum(packetBytes) 	147456
attr interpolationmode  none
attr source  sentPk
attr title  "packets sent, sum(packetBytes)"
scalar ExamTaskNetwork_no_CCTV.BrowsingLaptop[3].tcpApp[0] 	rcvdPk:count 	17
attr interpolationmode  none
attr source  rcvdPk
attr title  "packets received, count"
scalar ExamTaskNetwork_no_CCTV.BrowsingLaptop[3].tcpApp[0] 	rcvdPk:sum(packetBytes) 	10032004
attr interpolationmode  none
attr source  rcvdPk
attr title  "packets received, sum(packetBytes)"
statistic ExamTaskNetwork_no_CCTV.BrowsingLaptop[3].tcpApp[0] 	endToEndDelay:histogram
field count 17
field mean 32.575999008714
field stddev 33.251145321997
field sum 553.79198314815
field sqrsum 35730.545737661
field min 0.498417800665
field max 107.69071538482
attr interpolationmode  none
attr source  messageAge(rcvdPk)
attr title  "end-to-end delay, histogram"
attr unit  s
bin	-INF	0
bin	-53.097730991411	0
bin	-45.951577819134	0
bin	-38.805424646857	0
bin	-31.659271474581	0
bin	-24.513118302304	0
bin	-17.366965130027	0
bin	-10.22081195775	0
bin	-3.0746587854734	3
bin	4.0714943868034	4
bin	11.21764755908	1
bin	18.363800731357	0
bin	25.509953903634	1
bin	32.656107075911	4
bin	39.802260248187	1
bin	46.948413420464	0
bin	54.094566592741	0
bin	61.240719765018	0
bin	68.386872937295	0
bin	75.533026109571	0
bin	82.679179281848	1
bin	89.825332454125	1
bin	96.971485626402	0
bin	104.11763879868	1
bin	111.26379197096	0
bin	118.40994514323	0
bin	125.55609831551	0
bin	132.70225148779	0
bin	139.84840466006	0
bin	146.99455783234	0
bin	154.14071100462	0
bin	161.28686417689	0
scalar ExamTaskNetwork_no_CCTV.BrowsingLaptop[4].networkLayer.arp 	initiatedARPResolution:count 	8
attr title  "ARP initiated resolutions, count"
scalar ExamTaskNetwork_no_CCTV.BrowsingLaptop[4].networkLayer.arp 	sentReply:count 	4
attr title  "ARP replies sent, count"
scalar ExamTaskNetwork_no_CCTV.BrowsingLaptop[4].networkLayer.arp 	sentReq:count 	9
attr title  "ARP request sent, count"
scalar ExamTaskNetwork_no_CCTV.BrowsingLaptop[4].networkLayer.arp 	failedARPResolution:count 	0
attr title  "ARP failed resolutions, count"
scalar ExamTaskNetwork_no_CCTV.BrowsingLaptop[4].networkLayer.arp 	completedARPResolution:count 	177
attr title  "ARP completed resolutions, count"
scalar ExamTaskNetwork_no_CCTV.BrowsingLaptop[4].lo0.lo 	rcvdPkFromHL:count 	0
attr interpolationmode  none
attr source  packetReceivedFromUpper
attr title  "packets received from higher layer, count"
scalar ExamTaskNetwork_no_CCTV.BrowsingLaptop[4].lo0.lo 	rcvdPkFromHL:sum(packetBytes) 	0
attr interpolationmode  none
attr source  packetReceivedFromUpper
attr title  "packets received from higher layer, sum(packetBytes)"
scalar ExamTaskNetwork_no_CCTV.BrowsingLaptop[4].lo0.lo 	passedUpPk:count 	0
attr interpolationmode  none
attr source  packetSentToUpper
attr title  "packets passed to higher layer, count"
scalar ExamTaskNetwork_no_CCTV.BrowsingLaptop[4].lo0.lo 	passedUpPk:sum(packetBytes) 	0
attr interpolationmode  none
attr source  packetSentToUpper
attr title  "packets passed to higher layer, sum(packetBytes)"
scalar ExamTaskNetwork_no_CCTV.BrowsingLaptop[4].lo0.lo 	droppedPkBitError:count 	0
attr interpolationmode  none
attr source  dropPkBitError
attr title  "packets dropped/bit error, count"
scalar ExamTaskNetwork_no_CCTV.BrowsingLaptop[4].lo0.lo 	droppedPkBitError:sum(packetBytes) 	0
attr interpolationmode  none
attr source  dropPkBitError
attr title  "packets dropped/bit error, sum(packetBytes)"
scalar ExamTaskNetwork_no_CCTV.BrowsingLaptop[4].wlan[0].agent 	dropConfirm:count 	0
attr title  "dropped confirms, count"
scalar ExamTaskNetwork_no_CCTV.BrowsingLaptop[4].wlan[0].agent 	acceptConfirm:count 	36
attr title  "accepted confirms, count"
scalar ExamTaskNetwork_no_CCTV.BrowsingLaptop[4].wlan[0].agent 	sentRequest:count 	36
attr title  "sent requests, count"
scalar ExamTaskNetwork_no_CCTV.BrowsingLaptop[4].wlan[0].mgmt 	dropPkByQueue:count 	0
attr interpolationmode  none
attr source  dropPkByQueue
attr title  "packets dropped by queue, count"
scalar ExamTaskNetwork_no_CCTV.BrowsingLaptop[4].wlan[0].mgmt 	dropPkByQueue:sum(packetBytes) 	0
attr interpolationmode  none
attr source  dropPkByQueue
attr title  "packets dropped by queue, sum(packetBytes)"
scalar ExamTaskNetwork_no_CCTV.BrowsingLaptop[4].wlan[0].mgmt 	dataQueueLen:max 	0
attr interpolationmode  sample-hold
attr title  "data queue length, max"
scalar ExamTaskNetwork_no_CCTV.BrowsingLaptop[4].wlan[0].mgmt 	dataQueueLen:timeavg 	0
attr interpolationmode  sample-hold
attr title  "data queue length, timeavg"
scalar ExamTaskNetwork_no_CCTV.BrowsingLaptop[4].wlan[0].mac 	"number of received packets" 	17099
scalar ExamTaskNetwork_no_CCTV.BrowsingLaptop[4].wlan[0].mac 	"number of collisions" 	45499
scalar ExamTaskNetwork_no_CCTV.BrowsingLaptop[4].wlan[0].mac 	"number of internal collisions" 	0
scalar ExamTaskNetwork_no_CCTV.BrowsingLaptop[4].wlan[0].mac 	"number of retry for AC 0" 	87
scalar ExamTaskNetwork_no_CCTV.BrowsingLaptop[4].wlan[0].mac 	"sent and received bits" 	6653696
scalar ExamTaskNetwork_no_CCTV.BrowsingLaptop[4].wlan[0].mac 	"sent packet within AC 0" 	8330
scalar ExamTaskNetwork_no_CCTV.BrowsingLaptop[4].wlan[0].mac 	"sent in TXOP " 	0
scalar ExamTaskNetwork_no_CCTV.BrowsingLaptop[4].wlan[0].mac 	"sentWithoutRetry AC 0" 	8280
scalar ExamTaskNetwork_no_CCTV.BrowsingLaptop[4].wlan[0].mac 	"numGivenUp AC 0" 	0
scalar ExamTaskNetwork_no_CCTV.BrowsingLaptop[4].wlan[0].mac 	"numDropped AC 0" 	0
scalar ExamTaskNetwork_no_CCTV.BrowsingLaptop[4].wlan[0].mac 	rcvdPkFromHL:count 	8342
attr interpolationmode  none
attr source  packetReceivedFromUpper
attr title  "packets received from higher layer, count"
scalar ExamTaskNetwork_no_CCTV.BrowsingLaptop[4].wlan[0].mac 	rcvdPkFromHL:sum(packetBytes) 	831712
attr interpolationmode  none
attr source  packetReceivedFromUpper
attr title  "packets received from higher layer, sum(packetBytes)"
scalar ExamTaskNetwork_no_CCTV.BrowsingLaptop[4].wlan[0].mac 	passedUpPk:count 	27024
attr interpolationmode  none
attr source  packetSentToUpper
attr title  "packets passed to higher layer, count"
scalar ExamTaskNetwork_no_CCTV.BrowsingLaptop[4].wlan[0].mac 	passedUpPk:sum(packetBytes) 	15024390
attr interpolationmode  none
attr source  packetSentToUpper
attr title  "packets passed to higher layer, sum(packetBytes)"
scalar ExamTaskNetwork_no_CCTV.BrowsingLaptop[4].wlan[0].mac 	rcvdPkFromLL:count 	3720703
attr interpolationmode  none
attr source  packetReceivedFromLower
attr title  "packets received from lower layer, count"
scalar ExamTaskNetwork_no_CCTV.BrowsingLaptop[4].wlan[0].mac 	rcvdPkFromLL:sum(packetBytes) 	1408347799
attr interpolationmode  none
attr source  packetReceivedFromLower
attr title  "packets received from lower layer, sum(packetBytes)"
scalar ExamTaskNetwork_no_CCTV.BrowsingLaptop[4].wlan[0].mac 	sentDownPk:count 	25528
attr interpolationmode  none
attr source  packetSentToLower
attr title  "packets sent to lower layer, count"
scalar ExamTaskNetwork_no_CCTV.BrowsingLaptop[4].wlan[0].mac 	sentDownPk:sum(packetBytes) 	1102908
attr interpolationmode  none
attr source  packetSentToLower
attr title  "packets sent to lower layer, sum(packetBytes)"
scalar ExamTaskNetwork_no_CCTV.BrowsingLaptop[4].wlan[0].radio 	lossRate:min 	0
attr interpolationmode  backward-sample-hold
attr title  "packet loss rate, min"
scalar ExamTaskNetwork_no_CCTV.BrowsingLaptop[4].wlan[0].radio 	lossRate:max 	0.26
attr interpolationmode  backward-sample-hold
attr title  "packet loss rate, max"
scalar ExamTaskNetwork_no_CCTV.BrowsingLaptop[4].wlan[0].radio 	lossRate:timeavg 	0.012104684095221
attr interpolationmode  backward-sample-hold
attr title  "packet loss rate, timeavg"
statistic ExamTaskNetwork_no_CCTV.BrowsingLaptop[4].wlan[0].radio 	channelNo:histogram
field count 1
field mean 0
field stddev -nan
field sum 0
field sqrsum 0
field min 0
field max 0
attr interpolationmode  sample-hold
attr title  "channel no, histogram"
bin	-INF	0
bin	-0.5	0
bin	-0.46666666666667	0
bin	-0.43333333333333	0
bin	-0.4	0
bin	-0.36666666666667	0
bin	-0.33333333333333	0
bin	-0.3	0
bin	-0.26666666666667	0
bin	-0.23333333333333	0
bin	-0.2	0
bin	-0.16666666666667	0
bin	-0.13333333333333	0
bin	-0.1	0
bin	-0.066666666666667	0
bin	-0.033333333333333	0
bin	0	1
bin	0.033333333333333	0
bin	0.066666666666667	0
bin	0.1	0
bin	0.13333333333333	0
bin	0.16666666666667	0
bin	0.2	0
bin	0.23333333333333	0
bin	0.26666666666667	0
bin	0.3	0
bin	0.33333333333333	0
bin	0.36666666666667	0
bin	0.4	0
bin	0.43333333333333	0
bin	0.46666666666667	0
bin	0.5	0
scalar ExamTaskNetwork_no_CCTV.BrowsingLaptop[4].wlan[0].radio 	radioState:count 	7492569
attr interpolationmode  sample-hold
attr title  "radio state (enum), count"
scalar ExamTaskNetwork_no_CCTV.BrowsingLaptop[4].wlan[0].radio 	bitrate:min 	54000000
attr interpolationmode  sample-hold
attr title  "tx bitrate, min"
attr unit  bps
scalar ExamTaskNetwork_no_CCTV.BrowsingLaptop[4].wlan[0].radio 	bitrate:max 	54000000
attr interpolationmode  sample-hold
attr title  "tx bitrate, max"
attr unit  bps
scalar ExamTaskNetwork_no_CCTV.BrowsingLaptop[4].wlan[0].radio 	bitrate:timeavg 	54000000
attr interpolationmode  sample-hold
attr title  "tx bitrate, timeavg"
attr unit  bps
scalar ExamTaskNetwork_no_CCTV.BrowsingLaptop[4].tcpApp[0] 	numActiveSessions:max 	1
attr interpolationmode  sample-hold
attr source  sum(connect)
attr title  "number of active sessions, max"
scalar ExamTaskNetwork_no_CCTV.BrowsingLaptop[4].tcpApp[0] 	numActiveSessions:timeavg 	0.60933649517046
attr interpolationmode  sample-hold
attr source  sum(connect)
attr title  "number of active sessions, timeavg"
scalar ExamTaskNetwork_no_CCTV.BrowsingLaptop[4].tcpApp[0] 	numSessions:last 	18
attr source  sum(connect+1)/2
attr title  "total number of sessions, last"
scalar ExamTaskNetwork_no_CCTV.BrowsingLaptop[4].tcpApp[0] 	sentPk:count 	18
attr interpolationmode  none
attr source  sentPk
attr title  "packets sent, count"
scalar ExamTaskNetwork_no_CCTV.BrowsingLaptop[4].tcpApp[0] 	sentPk:sum(packetBytes) 	147456
attr interpolationmode  none
attr source  sentPk
attr title  "packets sent, sum(packetBytes)"
scalar ExamTaskNetwork_no_CCTV.BrowsingLaptop[4].tcpApp[0] 	rcvdPk:count 	18
attr interpolationmode  none
attr source  rcvdPk
attr title  "packets received, count"
scalar ExamTaskNetwork_no_CCTV.BrowsingLaptop[4].tcpApp[0] 	rcvdPk:sum(packetBytes) 	11592191
attr interpolationmode  none
attr source  rcvdPk
attr title  "packets received, sum(packetBytes)"
statistic ExamTaskNetwork_no_CCTV.BrowsingLaptop[4].tcpApp[0] 	endToEndDelay:histogram
field count 18
field mean 33.462474131717
field stddev 25.909192957062
field sum 602.32453437091
field sqrsum 31567.135904952
field min 0.99701239916
field max 103.87302909057
attr interpolationmode  none
attr source  messageAge(rcvdPk)
attr title  "end-to-end delay, histogram"
attr unit  s
bin	-INF	0
bin	-50.440995946544	0
bin	-43.582594833784	0
bin	-36.724193721023	0
bin	-29.865792608263	0
bin	-23.007391495502	0
bin	-16.148990382741	0
bin	-9.2905892699809	0
bin	-2.4321881572203	1
bin	4.4262129555403	2
bin	11.284614068301	2
bin	18.143015181062	2
bin	25.001416293822	2
bin	31.859817406583	4
bin	38.718218519343	3
bin	45.576619632104	0
bin	52.435020744864	0
bin	59.293421857625	0
bin	66.151822970386	0
bin	73.010224083146	0
bin	79.868625195907	1
bin	86.727026308668	0
bin	93.585427421428	0
bin	100.44382853419	1
bin	107.30222964695	0
bin	114.16063075971	0
bin	121.01903187247	0
bin	127.87743298523	0
bin	134.73583409799	0
bin	141.59423521075	0
bin	148.45263632351	0
bin	155.31103743627	0
scalar ExamTaskNetwork_no_CCTV.BrowsingLaptop[5].networkLayer.arp 	initiatedARPResolution:count 	9
attr title  "ARP initiated resolutions, count"
scalar ExamTaskNetwork_no_CCTV.BrowsingLaptop[5].networkLayer.arp 	sentReply:count 	7
attr title  "ARP replies sent, count"
scalar ExamTaskNetwork_no_CCTV.BrowsingLaptop[5].networkLayer.arp 	sentReq:count 	9
attr title  "ARP request sent, count"
scalar ExamTaskNetwork_no_CCTV.BrowsingLaptop[5].networkLayer.arp 	failedARPResolution:count 	0
attr title  "ARP failed resolutions, count"
scalar ExamTaskNetwork_no_CCTV.BrowsingLaptop[5].networkLayer.arp 	completedARPResolution:count 	170
attr title  "ARP completed resolutions, count"
scalar ExamTaskNetwork_no_CCTV.BrowsingLaptop[5].lo0.lo 	rcvdPkFromHL:count 	0
attr interpolationmode  none
attr source  packetReceivedFromUpper
attr title  "packets received from higher layer, count"
scalar ExamTaskNetwork_no_CCTV.BrowsingLaptop[5].lo0.lo 	rcvdPkFromHL:sum(packetBytes) 	0
attr interpolationmode  none
attr source  packetReceivedFromUpper
attr title  "packets received from higher layer, sum(packetBytes)"
scalar ExamTaskNetwork_no_CCTV.BrowsingLaptop[5].lo0.lo 	passedUpPk:count 	0
attr interpolationmode  none
attr source  packetSentToUpper
attr title  "packets passed to higher layer, count"
scalar ExamTaskNetwork_no_CCTV.BrowsingLaptop[5].lo0.lo 	passedUpPk:sum(packetBytes) 	0
attr interpolationmode  none
attr source  packetSentToUpper
attr title  "packets passed to higher layer, sum(packetBytes)"
scalar ExamTaskNetwork_no_CCTV.BrowsingLaptop[5].lo0.lo 	droppedPkBitError:count 	0
attr interpolationmode  none
attr source  dropPkBitError
attr title  "packets dropped/bit error, count"
scalar ExamTaskNetwork_no_CCTV.BrowsingLaptop[5].lo0.lo 	droppedPkBitError:sum(packetBytes) 	0
attr interpolationmode  none
attr source  dropPkBitError
attr title  "packets dropped/bit error, sum(packetBytes)"
scalar ExamTaskNetwork_no_CCTV.BrowsingLaptop[5].wlan[0].agent 	dropConfirm:count 	0
attr title  "dropped confirms, count"
scalar ExamTaskNetwork_no_CCTV.BrowsingLaptop[5].wlan[0].agent 	acceptConfirm:count 	36
attr title  "accepted confirms, count"
scalar ExamTaskNetwork_no_CCTV.BrowsingLaptop[5].wlan[0].agent 	sentRequest:count 	36
attr title  "sent requests, count"
scalar ExamTaskNetwork_no_CCTV.BrowsingLaptop[5].wlan[0].mgmt 	dropPkByQueue:count 	144
attr interpolationmode  none
attr source  dropPkByQueue
attr title  "packets dropped by queue, count"
scalar ExamTaskNetwork_no_CCTV.BrowsingLaptop[5].wlan[0].mgmt 	dropPkByQueue:sum(packetBytes) 	14110
attr interpolationmode  none
attr source  dropPkByQueue
attr title  "packets dropped by queue, sum(packetBytes)"
scalar ExamTaskNetwork_no_CCTV.BrowsingLaptop[5].wlan[0].mgmt 	dataQueueLen:max 	50
attr interpolationmode  sample-hold
attr title  "data queue length, max"
scalar ExamTaskNetwork_no_CCTV.BrowsingLaptop[5].wlan[0].mgmt 	dataQueueLen:timeavg 	0.012985092417575
attr interpolationmode  sample-hold
attr title  "data queue length, timeavg"
scalar ExamTaskNetwork_no_CCTV.BrowsingLaptop[5].wlan[0].mac 	"number of received packets" 	17185
scalar ExamTaskNetwork_no_CCTV.BrowsingLaptop[5].wlan[0].mac 	"number of collisions" 	77973
scalar ExamTaskNetwork_no_CCTV.BrowsingLaptop[5].wlan[0].mac 	"number of internal collisions" 	0
scalar ExamTaskNetwork_no_CCTV.BrowsingLaptop[5].wlan[0].mac 	"number of retry for AC 0" 	319
scalar ExamTaskNetwork_no_CCTV.BrowsingLaptop[5].wlan[0].mac 	"sent and received bits" 	7750832
scalar ExamTaskNetwork_no_CCTV.BrowsingLaptop[5].wlan[0].mac 	"sent packet within AC 0" 	9163
scalar ExamTaskNetwork_no_CCTV.BrowsingLaptop[5].wlan[0].mac 	"sent in TXOP " 	0
scalar ExamTaskNetwork_no_CCTV.BrowsingLaptop[5].wlan[0].mac 	"sentWithoutRetry AC 0" 	8907
scalar ExamTaskNetwork_no_CCTV.BrowsingLaptop[5].wlan[0].mac 	"numGivenUp AC 0" 	0
scalar ExamTaskNetwork_no_CCTV.BrowsingLaptop[5].wlan[0].mac 	"numDropped AC 0" 	0
scalar ExamTaskNetwork_no_CCTV.BrowsingLaptop[5].wlan[0].mac 	rcvdPkFromHL:count 	9175
attr interpolationmode  none
attr source  packetReceivedFromUpper
attr title  "packets received from higher layer, count"
scalar ExamTaskNetwork_no_CCTV.BrowsingLaptop[5].wlan[0].mac 	rcvdPkFromHL:sum(packetBytes) 	968854
attr interpolationmode  none
attr source  packetReceivedFromUpper
attr title  "packets received from higher layer, sum(packetBytes)"
scalar ExamTaskNetwork_no_CCTV.BrowsingLaptop[5].wlan[0].mac 	passedUpPk:count 	27114
attr interpolationmode  none
attr source  packetSentToUpper
attr title  "packets passed to higher layer, count"
scalar ExamTaskNetwork_no_CCTV.BrowsingLaptop[5].wlan[0].mac 	passedUpPk:sum(packetBytes) 	15198004
attr interpolationmode  none
attr source  packetSentToUpper
attr title  "packets passed to higher layer, sum(packetBytes)"
scalar ExamTaskNetwork_no_CCTV.BrowsingLaptop[5].wlan[0].mac 	rcvdPkFromLL:count 	3719552
attr interpolationmode  none
attr source  packetReceivedFromLower
attr title  "packets received from lower layer, count"
scalar ExamTaskNetwork_no_CCTV.BrowsingLaptop[5].wlan[0].mac 	rcvdPkFromLL:sum(packetBytes) 	1407809639
attr interpolationmode  none
attr source  packetReceivedFromLower
attr title  "packets received from lower layer, sum(packetBytes)"
scalar ExamTaskNetwork_no_CCTV.BrowsingLaptop[5].wlan[0].mac 	sentDownPk:count 	26679
attr interpolationmode  none
attr source  packetSentToLower
attr title  "packets sent to lower layer, count"
scalar ExamTaskNetwork_no_CCTV.BrowsingLaptop[5].wlan[0].mac 	sentDownPk:sum(packetBytes) 	1280874
attr interpolationmode  none
attr source  packetSentToLower
attr title  "packets sent to lower layer, sum(packetBytes)"
scalar ExamTaskNetwork_no_CCTV.BrowsingLaptop[5].wlan[0].radio 	lossRate:min 	0
attr interpolationmode  backward-sample-hold
attr title  "packet loss rate, min"
scalar ExamTaskNetwork_no_CCTV.BrowsingLaptop[5].wlan[0].radio 	lossRate:max 	0.24
attr interpolationmode  backward-sample-hold
attr title  "packet loss rate, max"
scalar ExamTaskNetwork_no_CCTV.BrowsingLaptop[5].wlan[0].radio 	lossRate:timeavg 	0.020714860298464
attr interpolationmode  backward-sample-hold
attr title  "packet loss rate, timeavg"
statistic ExamTaskNetwork_no_CCTV.BrowsingLaptop[5].wlan[0].radio 	channelNo:histogram
field count 1
field mean 0
field stddev -nan
field sum 0
field sqrsum 0
field min 0
field max 0
attr interpolationmode  sample-hold
attr title  "channel no, histogram"
bin	-INF	0
bin	-0.5	0
bin	-0.46666666666667	0
bin	-0.43333333333333	0
bin	-0.4	0
bin	-0.36666666666667	0
bin	-0.33333333333333	0
bin	-0.3	0
bin	-0.26666666666667	0
bin	-0.23333333333333	0
bin	-0.2	0
bin	-0.16666666666667	0
bin	-0.13333333333333	0
bin	-0.1	0
bin	-0.066666666666667	0
bin	-0.033333333333333	0
bin	0	1
bin	0.033333333333333	0
bin	0.066666666666667	0
bin	0.1	0
bin	0.13333333333333	0
bin	0.16666666666667	0
bin	0.2	0
bin	0.23333333333333	0
bin	0.26666666666667	0
bin	0.3	0
bin	0.33333333333333	0
bin	0.36666666666667	0
bin	0.4	0
bin	0.43333333333333	0
bin	0.46666666666667	0
bin	0.5	0
scalar ExamTaskNetwork_no_CCTV.BrowsingLaptop[5].wlan[0].radio 	radioState:count 	7492855
attr interpolationmode  sample-hold
attr title  "radio state (enum), count"
scalar ExamTaskNetwork_no_CCTV.BrowsingLaptop[5].wlan[0].radio 	bitrate:min 	54000000
attr interpolationmode  sample-hold
attr title  "tx bitrate, min"
attr unit  bps
scalar ExamTaskNetwork_no_CCTV.BrowsingLaptop[5].wlan[0].radio 	bitrate:max 	54000000
attr interpolationmode  sample-hold
attr title  "tx bitrate, max"
attr unit  bps
scalar ExamTaskNetwork_no_CCTV.BrowsingLaptop[5].wlan[0].radio 	bitrate:timeavg 	54000000
attr interpolationmode  sample-hold
attr title  "tx bitrate, timeavg"
attr unit  bps
scalar ExamTaskNetwork_no_CCTV.BrowsingLaptop[5].tcpApp[0] 	numActiveSessions:max 	1
attr interpolationmode  sample-hold
attr source  sum(connect)
attr title  "number of active sessions, max"
scalar ExamTaskNetwork_no_CCTV.BrowsingLaptop[5].tcpApp[0] 	numActiveSessions:timeavg 	0.65303958908717
attr interpolationmode  sample-hold
attr source  sum(connect)
attr title  "number of active sessions, timeavg"
scalar ExamTaskNetwork_no_CCTV.BrowsingLaptop[5].tcpApp[0] 	numSessions:last 	24
attr source  sum(connect+1)/2
attr title  "total number of sessions, last"
scalar ExamTaskNetwork_no_CCTV.BrowsingLaptop[5].tcpApp[0] 	sentPk:count 	24
attr interpolationmode  none
attr source  sentPk
attr title  "packets sent, count"
scalar ExamTaskNetwork_no_CCTV.BrowsingLaptop[5].tcpApp[0] 	sentPk:sum(packetBytes) 	196608
attr interpolationmode  none
attr source  sentPk
attr title  "packets sent, sum(packetBytes)"
scalar ExamTaskNetwork_no_CCTV.BrowsingLaptop[5].tcpApp[0] 	rcvdPk:count 	24
attr interpolationmode  none
attr source  rcvdPk
attr title  "packets received, count"
scalar ExamTaskNetwork_no_CCTV.BrowsingLaptop[5].tcpApp[0] 	rcvdPk:sum(packetBytes) 	11207353
attr interpolationmode  none
attr source  rcvdPk
attr title  "packets received, sum(packetBytes)"
statistic ExamTaskNetwork_no_CCTV.BrowsingLaptop[5].tcpApp[0] 	endToEndDelay:histogram
field count 24
field mean 26.433966952694
field stddev 25.343184908064
field sum 634.41520686465
field sqrsum 31542.482102087
field min 3.317978591025
field max 114.48559140454
attr interpolationmode  none
attr source  messageAge(rcvdPk)
attr title  "end-to-end delay, histogram"
attr unit  s
bin	-INF	0
bin	-52.265827815731	0
bin	-44.854653628163	0
bin	-37.443479440596	0
bin	-30.032305253028	0
bin	-22.621131065461	0
bin	-15.209956877894	0
bin	-7.7987826903261	0
bin	-0.3876085027587	3
bin	7.0235656848087	6
bin	14.434739872376	3
bin	21.845914059943	6
bin	29.257088247511	0
bin	36.668262435078	3
bin	44.079436622646	0
bin	51.490610810213	1
bin	58.90178499778	0
[...]
scalar ExamTaskNetwork_no_CCTV.MainRouter.eth[1].mac 	full-duplex 	1
scalar ExamTaskNetwork_no_CCTV.MainRouter.eth[1].mac 	"frames/sec sent" 	24.847999386204
scalar ExamTaskNetwork_no_CCTV.MainRouter.eth[1].mac 	"frames/sec rcvd" 	24.979999382943
scalar ExamTaskNetwork_no_CCTV.MainRouter.eth[1].mac 	"bits/sec sent" 	287253.70490425
scalar ExamTaskNetwork_no_CCTV.MainRouter.eth[1].mac 	"bits/sec rcvd" 	288780.68086653
scalar ExamTaskNetwork_no_CCTV.MainRouter.eth[1].mac 	"rx channel idle (%)" 	99.709620599173
scalar ExamTaskNetwork_no_CCTV.MainRouter.eth[1].mac 	"rx channel utilization (%)" 	0.29037940082704
scalar ExamTaskNetwork_no_CCTV.MainRouter.eth[1].mac 	rxPkFromHL:count 	24848
attr interpolationmode  none
attr source  rxPkFromHL
attr title  "packet bytes from higher layer, count"
scalar ExamTaskNetwork_no_CCTV.MainRouter.eth[1].mac 	rxPkFromHL:sum(packetBytes) 	35906714
attr interpolationmode  none
attr source  rxPkFromHL
attr title  "packet bytes from higher layer, sum(packetBytes)"
scalar ExamTaskNetwork_no_CCTV.MainRouter.eth[1].mac 	rxPausePkUnits:count 	0
attr interpolationmode  none
attr title  "pause units received, count"
scalar ExamTaskNetwork_no_CCTV.MainRouter.eth[1].mac 	rxPausePkUnits:sum 	0
attr interpolationmode  none
attr title  "pause units received, sum"
scalar ExamTaskNetwork_no_CCTV.MainRouter.eth[1].mac 	txPausePkUnits:count 	0
attr interpolationmode  none
attr title  "pause units sent, count"
scalar ExamTaskNetwork_no_CCTV.MainRouter.eth[1].mac 	txPausePkUnits:sum 	0
attr interpolationmode  none
attr title  "pause units sent, sum"
scalar ExamTaskNetwork_no_CCTV.MainRouter.eth[1].mac 	txPk:count 	24848
attr interpolationmode  none
attr source  txPk
attr title  "packets transmitted, count"
scalar ExamTaskNetwork_no_CCTV.MainRouter.eth[1].mac 	txPk:sum(packetBytes) 	35906714
attr interpolationmode  none
attr source  txPk
attr title  "packets transmitted, sum(packetBytes)"
scalar ExamTaskNetwork_no_CCTV.MainRouter.eth[1].mac 	droppedPkNotForUs:count 	0
attr interpolationmode  none
attr source  dropPkNotForUs
attr title  "packets dropped/not for us, count"
scalar ExamTaskNetwork_no_CCTV.MainRouter.eth[1].mac 	droppedPkNotForUs:sum(packetBytes) 	0
attr interpolationmode  none
attr source  dropPkNotForUs
attr title  "packets dropped/not for us, sum(packetBytes)"
scalar ExamTaskNetwork_no_CCTV.MainRouter.eth[1].mac 	passedUpPk:count 	24980
attr interpolationmode  none
attr source  packetSentToUpper
attr title  "packets passed to higher layer, count"
scalar ExamTaskNetwork_no_CCTV.MainRouter.eth[1].mac 	passedUpPk:sum(packetBytes) 	36097586
attr interpolationmode  none
attr source  packetSentToUpper
attr title  "packets passed to higher layer, sum(packetBytes)"
scalar ExamTaskNetwork_no_CCTV.MainRouter.eth[1].mac 	droppedPkBitError:count 	0
attr interpolationmode  none
attr source  dropPkBitError
attr title  "packets dropped/bit error, count"
scalar ExamTaskNetwork_no_CCTV.MainRouter.eth[1].mac 	droppedPkBitError:sum(packetBytes) 	0
attr interpolationmode  none
attr source  dropPkBitError
attr title  "packets dropped/bit error, sum(packetBytes)"
scalar ExamTaskNetwork_no_CCTV.MainRouter.eth[1].mac 	droppedPkIfaceDown:count 	0
attr interpolationmode  none
attr source  dropPkIfaceDown
attr title  "packets dropped/interface down, count"
scalar ExamTaskNetwork_no_CCTV.MainRouter.eth[1].mac 	droppedPkIfaceDown:sum(packetBytes) 	0
attr interpolationmode  none
attr source  dropPkIfaceDown
attr title  "packets dropped/interface down, sum(packetBytes)"
scalar ExamTaskNetwork_no_CCTV.MainRouter.eth[1].mac 	rxPkOk:count 	24980
attr interpolationmode  none
attr source  rxPkOk
attr title  "packets received OK, count"
scalar ExamTaskNetwork_no_CCTV.MainRouter.eth[1].mac 	rxPkOk:sum(packetBytes) 	36097586
attr interpolationmode  none
attr source  rxPkOk
attr title  "packets received OK, sum(packetBytes)"
scalar ExamTaskNetwork_no_CCTV.MainRouter.eth[1].encap 	pauseSent:count 	0
attr title  "pause sent, count"
scalar ExamTaskNetwork_no_CCTV.MainRouter.eth[1].encap 	pauseSent:sum 	0
attr title  "pause sent, sum"
scalar ExamTaskNetwork_no_CCTV.MainRouter.eth[1].encap 	decapPk:count 	24980
attr interpolationmode  none
attr source  decapPk
attr title  "packets decapsulated, count"
scalar ExamTaskNetwork_no_CCTV.MainRouter.eth[1].encap 	decapPk:sum(packetBytes) 	35647640
attr interpolationmode  none
attr source  decapPk
attr title  "packets decapsulated, sum(packetBytes)"
scalar ExamTaskNetwork_no_CCTV.MainRouter.eth[1].encap 	encapPk:count 	24848
attr interpolationmode  none
attr source  encapPk
attr title  "packets encapsulated, count"
scalar ExamTaskNetwork_no_CCTV.MainRouter.eth[1].encap 	encapPk:sum(packetBytes) 	35459144
attr interpolationmode  none
attr source  encapPk
attr title  "packets encapsulated, sum(packetBytes)"
scalar ExamTaskNetwork_no_CCTV.MainRouter.ppp[0].outputHook[0] 	duration 	1000.000024702
scalar ExamTaskNetwork_no_CCTV.MainRouter.ppp[0].outputHook[0] 	"total packets" 	1234396
scalar ExamTaskNetwork_no_CCTV.MainRouter.ppp[0].outputHook[0] 	"total bits" 	5476945832
scalar ExamTaskNetwork_no_CCTV.MainRouter.ppp[0].outputHook[0] 	"avg throughput (bit/s)" 	5476945.6967084
scalar ExamTaskNetwork_no_CCTV.MainRouter.ppp[0].outputHook[0] 	"avg packets/s" 	1234.3959695079
scalar ExamTaskNetwork_no_CCTV.MainRouter.ppp[0].inputHook[0] 	duration 	1000.000024702
scalar ExamTaskNetwork_no_CCTV.MainRouter.ppp[0].inputHook[0] 	"total packets" 	751290
scalar ExamTaskNetwork_no_CCTV.MainRouter.ppp[0].inputHook[0] 	"total bits" 	4931473056
scalar ExamTaskNetwork_no_CCTV.MainRouter.ppp[0].inputHook[0] 	"avg throughput (bit/s)" 	4931472.9341826
scalar ExamTaskNetwork_no_CCTV.MainRouter.ppp[0].inputHook[0] 	"avg packets/s" 	751.28998144162
statistic ExamTaskNetwork_no_CCTV.MainRouter.ppp[0].queue 	queueingTime:histogram
field count 1144570
field mean 0.0012313700247081
field stddev 0.0037288901504026
field sum 1409.3891891802
field sqrsum 17.650278616794
field min 0
field max 0.038436348557
attr interpolationmode  none
attr title  "queueing time, histogram"
bin	-INF	0
bin	-0.000327653337	0
bin	-0.0002839662254	0
bin	-0.0002402791138	0
bin	-0.0001965920022	0
bin	-0.0001529048906	0
bin	-0.000109217779	0
bin	-6.55306674e-05	0
bin	-2.18435558e-05	554432
bin	2.18435558e-05	5123
bin	6.55306674e-05	3787
bin	0.000109217779	6476
bin	0.0001529048906	5423
bin	0.0001965920022	4918
bin	0.0002402791138	4656
bin	0.0002839662254	3776
bin	0.000327653337	4267
bin	0.0003713404486	2770
bin	0.0004150275602	2644
bin	0.0004587146718	2646
bin	0.0005024017834	3170
bin	0.000546088895	5236
bin	0.0005897760066	8278
bin	0.0006334631182	8010
bin	0.0006771502298	3236
bin	0.0007208373414	2863
bin	0.000764524453	3398
bin	0.0008082115646	2786
bin	0.0008518986762	2885
bin	0.0008955857878	56701
bin	0.0009392728994	3669
bin	0.000982960011	443420
scalar ExamTaskNetwork_no_CCTV.MainRouter.ppp[0].queue 	dropPk:count 	89826
attr interpolationmode  none
attr source  dropPkByQueue
attr title  "dropped packets, count"
scalar ExamTaskNetwork_no_CCTV.MainRouter.ppp[0].queue 	dropPk:sum(packetBytes) 	64535874
attr interpolationmode  none
attr source  dropPkByQueue
attr title  "dropped packets, sum(packetBytes)"
scalar ExamTaskNetwork_no_CCTV.MainRouter.ppp[0].queue 	queueLength:max 	50
attr interpolationmode  sample-hold
attr title  "queue length, max"
scalar ExamTaskNetwork_no_CCTV.MainRouter.ppp[0].queue 	queueLength:timeavg 	1.4093891543589
attr interpolationmode  sample-hold
attr title  "queue length, timeavg"
scalar ExamTaskNetwork_no_CCTV.MainRouter.ppp[0].queue 	rcvdPk:count 	1234396
attr interpolationmode  none
attr title  "received packets, count"
scalar ExamTaskNetwork_no_CCTV.MainRouter.ppp[0].queue 	rcvdPk:sum(packetBytes) 	684618229
attr interpolationmode  none
attr title  "received packets, sum(packetBytes)"
scalar ExamTaskNetwork_no_CCTV.MainRouter.ppp[0].ppp 	rcvdPkFromHL:count 	1144570
attr interpolationmode  none
attr source  packetReceivedFromUpper
attr title  "packets received from higher layer, count"
scalar ExamTaskNetwork_no_CCTV.MainRouter.ppp[0].ppp 	rcvdPkFromHL:sum(packetBytes) 	620082355
attr interpolationmode  none
attr source  packetReceivedFromUpper
attr title  "packets received from higher layer, sum(packetBytes)"
scalar ExamTaskNetwork_no_CCTV.MainRouter.ppp[0].ppp 	passedUpPk:count 	751290
attr interpolationmode  none
attr source  packetSentToUpper
attr title  "packets passed to higher layer, count"
scalar ExamTaskNetwork_no_CCTV.MainRouter.ppp[0].ppp 	passedUpPk:sum(packetBytes) 	616434132
attr interpolationmode  none
attr source  packetSentToUpper
attr title  "packets passed to higher layer, sum(packetBytes)"
scalar ExamTaskNetwork_no_CCTV.MainRouter.ppp[0].ppp 	txPk:count 	1144570
attr interpolationmode  none
attr source  packetSentToLower
attr title  "packets transmitted, count"
scalar ExamTaskNetwork_no_CCTV.MainRouter.ppp[0].ppp 	txPk:sum(packetBytes) 	628094345
attr interpolationmode  none
attr source  packetSentToLower
attr title  "packets transmitted, sum(packetBytes)"
scalar ExamTaskNetwork_no_CCTV.MainRouter.ppp[0].ppp 	droppedPkBitError:count 	0
attr interpolationmode  none
attr source  dropPkBitError
attr title  "packets dropped/bit error, count"
scalar ExamTaskNetwork_no_CCTV.MainRouter.ppp[0].ppp 	droppedPkBitError:sum(packetBytes) 	0
attr interpolationmode  none
attr source  dropPkBitError
attr title  "packets dropped/bit error, sum(packetBytes)"
scalar ExamTaskNetwork_no_CCTV.MainRouter.ppp[0].ppp 	droppedPkIfaceDown:count 	0
attr interpolationmode  none
attr source  dropPkIfaceDown
attr title  "packets dropped/interface down, count"
scalar ExamTaskNetwork_no_CCTV.MainRouter.ppp[0].ppp 	droppedPkIfaceDown:sum(packetBytes) 	0
attr interpolationmode  none
attr source  dropPkIfaceDown
attr title  "packets dropped/interface down, sum(packetBytes)"
scalar ExamTaskNetwork_no_CCTV.MainRouter.ppp[0].ppp 	rxPkOk:count 	751290
attr interpolationmode  none
attr source  rxPkOk
attr title  "packets received OK, count"
scalar ExamTaskNetwork_no_CCTV.MainRouter.ppp[0].ppp 	rxPkOk:sum(packetBytes) 	621693162
attr interpolationmode  none
attr source  rxPkOk
attr title  "packets received OK, sum(packetBytes)"
scalar ExamTaskNetwork_no_CCTV.MainRouter.ppp[0].ppp 	txState:timeavg 	0.41872955260441
attr interpolationmode  sample-hold
attr title  "tx state, timeavg"
scalar ExamTaskNetwork_no_CCTV.Internet.networkLayer.arp 	initiatedARPResolution:count 	339
attr title  "ARP initiated resolutions, count"
scalar ExamTaskNetwork_no_CCTV.Internet.networkLayer.arp 	sentReply:count 	2
attr title  "ARP replies sent, count"
scalar ExamTaskNetwork_no_CCTV.Internet.networkLayer.arp 	sentReq:count 	339
attr title  "ARP request sent, count"
scalar ExamTaskNetwork_no_CCTV.Internet.networkLayer.arp 	failedARPResolution:count 	0
attr title  "ARP failed resolutions, count"
scalar ExamTaskNetwork_no_CCTV.Internet.networkLayer.arp 	completedARPResolution:count 	341
attr title  "ARP completed resolutions, count"
scalar ExamTaskNetwork_no_CCTV.Internet.lo0.lo 	rcvdPkFromHL:count 	0
attr interpolationmode  none
attr source  packetReceivedFromUpper
attr title  "packets received from higher layer, count"
scalar ExamTaskNetwork_no_CCTV.Internet.lo0.lo 	rcvdPkFromHL:sum(packetBytes) 	0
attr interpolationmode  none
attr source  packetReceivedFromUpper
attr title  "packets received from higher layer, sum(packetBytes)"
scalar ExamTaskNetwork_no_CCTV.Internet.lo0.lo 	passedUpPk:count 	0
attr interpolationmode  none
attr source  packetSentToUpper
attr title  "packets passed to higher layer, count"
scalar ExamTaskNetwork_no_CCTV.Internet.lo0.lo 	passedUpPk:sum(packetBytes) 	0
attr interpolationmode  none
attr source  packetSentToUpper
attr title  "packets passed to higher layer, sum(packetBytes)"
scalar ExamTaskNetwork_no_CCTV.Internet.lo0.lo 	droppedPkBitError:count 	0
attr interpolationmode  none
attr source  dropPkBitError
attr title  "packets dropped/bit error, count"
scalar ExamTaskNetwork_no_CCTV.Internet.lo0.lo 	droppedPkBitError:sum(packetBytes) 	0
attr interpolationmode  none
attr source  dropPkBitError
attr title  "packets dropped/bit error, sum(packetBytes)"
scalar ExamTaskNetwork_no_CCTV.Internet.eth[0].mac 	"simulated time" 	1000.000024702
scalar ExamTaskNetwork_no_CCTV.Internet.eth[0].mac 	full-duplex 	1
scalar ExamTaskNetwork_no_CCTV.Internet.eth[0].mac 	"frames/sec sent" 	1209.8109701152
scalar ExamTaskNetwork_no_CCTV.Internet.eth[0].mac 	"frames/sec rcvd" 	1102.540972765
scalar ExamTaskNetwork_no_CCTV.Internet.eth[0].mac 	"bits/sec sent" 	5450169.0493698
scalar ExamTaskNetwork_no_CCTV.Internet.eth[0].mac 	"bits/sec rcvd" 	4942759.5419038
scalar ExamTaskNetwork_no_CCTV.Internet.eth[0].mac 	"rx channel idle (%)" 	94.986677835839
scalar ExamTaskNetwork_no_CCTV.Internet.eth[0].mac 	"rx channel utilization (%)" 	5.0133221641606
scalar ExamTaskNetwork_no_CCTV.Internet.eth[0].mac 	rxPkFromHL:count 	1209811
attr interpolationmode  none
attr source  rxPkFromHL
attr title  "packet bytes from higher layer, count"
scalar ExamTaskNetwork_no_CCTV.Internet.eth[0].mac 	rxPkFromHL:sum(packetBytes) 	681271148
attr interpolationmode  none
attr source  rxPkFromHL
attr title  "packet bytes from higher layer, sum(packetBytes)"
scalar ExamTaskNetwork_no_CCTV.Internet.eth[0].mac 	rxPausePkUnits:count 	0
attr interpolationmode  none
attr title  "pause units received, count"
scalar ExamTaskNetwork_no_CCTV.Internet.eth[0].mac 	rxPausePkUnits:sum 	0
attr interpolationmode  none
attr title  "pause units received, sum"
scalar ExamTaskNetwork_no_CCTV.Internet.eth[0].mac 	txPausePkUnits:count 	0
attr interpolationmode  none
attr title  "pause units sent, count"
scalar ExamTaskNetwork_no_CCTV.Internet.eth[0].mac 	txPausePkUnits:sum 	0
attr interpolationmode  none
attr title  "pause units sent, sum"
scalar ExamTaskNetwork_no_CCTV.Internet.eth[0].mac 	txPk:count 	1209811
attr interpolationmode  none
attr source  txPk
attr title  "packets transmitted, count"
scalar ExamTaskNetwork_no_CCTV.Internet.eth[0].mac 	txPk:sum(packetBytes) 	681271148
attr interpolationmode  none
attr source  txPk
attr title  "packets transmitted, sum(packetBytes)"
scalar ExamTaskNetwork_no_CCTV.Internet.eth[0].mac 	droppedPkNotForUs:count 	0
attr interpolationmode  none
attr source  dropPkNotForUs
attr title  "packets dropped/not for us, count"
scalar ExamTaskNetwork_no_CCTV.Internet.eth[0].mac 	droppedPkNotForUs:sum(packetBytes) 	0
attr interpolationmode  none
attr source  dropPkNotForUs
attr title  "packets dropped/not for us, sum(packetBytes)"
scalar ExamTaskNetwork_no_CCTV.Internet.eth[0].mac 	passedUpPk:count 	1102541
attr interpolationmode  none
attr source  packetSentToUpper
attr title  "packets passed to higher layer, count"
scalar ExamTaskNetwork_no_CCTV.Internet.eth[0].mac 	passedUpPk:sum(packetBytes) 	617844958
attr interpolationmode  none
attr source  packetSentToUpper
attr title  "packets passed to higher layer, sum(packetBytes)"
scalar ExamTaskNetwork_no_CCTV.Internet.eth[0].mac 	droppedPkBitError:count 	0
attr interpolationmode  none
attr source  dropPkBitError
attr title  "packets dropped/bit error, count"
scalar ExamTaskNetwork_no_CCTV.Internet.eth[0].mac 	droppedPkBitError:sum(packetBytes) 	0
attr interpolationmode  none
attr source  dropPkBitError
attr title  "packets dropped/bit error, sum(packetBytes)"
scalar ExamTaskNetwork_no_CCTV.Internet.eth[0].mac 	droppedPkIfaceDown:count 	0
attr interpolationmode  none
attr source  dropPkIfaceDown
attr title  "packets dropped/interface down, count"
scalar ExamTaskNetwork_no_CCTV.Internet.eth[0].mac 	droppedPkIfaceDown:sum(packetBytes) 	0
attr interpolationmode  none
attr source  dropPkIfaceDown
attr title  "packets dropped/interface down, sum(packetBytes)"
scalar ExamTaskNetwork_no_CCTV.Internet.eth[0].mac 	rxPkOk:count 	1102541
attr interpolationmode  none
attr source  rxPkOk
attr title  "packets received OK, count"
scalar ExamTaskNetwork_no_CCTV.Internet.eth[0].mac 	rxPkOk:sum(packetBytes) 	617844958
attr interpolationmode  none
attr source  rxPkOk
attr title  "packets received OK, sum(packetBytes)"
scalar ExamTaskNetwork_no_CCTV.Internet.eth[0].encap 	pauseSent:count 	0
attr title  "pause sent, count"
scalar ExamTaskNetwork_no_CCTV.Internet.eth[0].encap 	pauseSent:sum 	0
attr title  "pause sent, sum"
scalar ExamTaskNetwork_no_CCTV.Internet.eth[0].encap 	decapPk:count 	1102541
attr interpolationmode  none
attr source  decapPk
attr title  "packets decapsulated, count"
scalar ExamTaskNetwork_no_CCTV.Internet.eth[0].encap 	decapPk:sum(packetBytes) 	588474410
attr interpolationmode  none
attr source  decapPk
attr title  "packets decapsulated, sum(packetBytes)"
scalar ExamTaskNetwork_no_CCTV.Internet.eth[0].encap 	encapPk:count 	1209811
attr interpolationmode  none
attr source  encapPk
attr title  "packets encapsulated, count"
scalar ExamTaskNetwork_no_CCTV.Internet.eth[0].encap 	encapPk:sum(packetBytes) 	648996553
attr interpolationmode  none
attr source  encapPk
attr title  "packets encapsulated, sum(packetBytes)"
scalar ExamTaskNetwork_no_CCTV.Internet.tcpApp[0] 	sentPk:count 	777
attr interpolationmode  none
attr source  sentPk
attr title  "packets sent, count"
scalar ExamTaskNetwork_no_CCTV.Internet.tcpApp[0] 	sentPk:sum(packetBytes) 	481379817
attr interpolationmode  none
attr source  sentPk
attr title  "packets sent, sum(packetBytes)"
scalar ExamTaskNetwork_no_CCTV.Internet.tcpApp[0] 	rcvdPk:count 	777
attr interpolationmode  none
attr source  rcvdPk
attr title  "packets received, count"
scalar ExamTaskNetwork_no_CCTV.Internet.tcpApp[0] 	rcvdPk:sum(packetBytes) 	6365184
attr interpolationmode  none
attr source  rcvdPk
attr title  "packets received, sum(packetBytes)"
statistic ExamTaskNetwork_no_CCTV.Internet.tcpApp[0] 	endToEndDelay:histogram
field count 777
field mean 0.59106696068563
field stddev 1.3530253327107
field sum 459.25902845274
field sqrsum 1692.0586176575
field min 0.207757320601
field max 19.315634094666
attr interpolationmode  none
attr source  messageAge(rcvdPk)
attr title  "end-to-end delay, histogram"
attr unit  s
bin	-INF	0
bin	-4.390809278365	0
bin	-3.7776670528561	0
bin	-3.1645248273471	0
bin	-2.5513826018382	0
bin	-1.9382403763293	0
bin	-1.3250981508203	0
bin	-0.7119559253114	0
bin	-0.098813699802466	717
bin	0.51432852570647	0
bin	1.1274707512154	0
bin	1.7406129767243	0
bin	2.3537552022333	1
bin	2.9668974277422	48
bin	3.5800396532511	0
bin	4.1931818787601	0
bin	4.806324104269	0
bin	5.4194663297779	0
bin	6.0326085552869	0
bin	6.6457507807958	0
bin	7.2588930063047	1
bin	7.8720352318137	2
bin	8.4851774573226	3
bin	9.0983196828315	4
bin	9.7114619083405	0
bin	10.324604133849	0
bin	10.937746359358	0
bin	11.550888584867	0
bin	12.164030810376	0
bin	12.777173035885	0
bin	13.390315261394	0
bin	14.003457486903	1
scalar ExamTaskNetwork_no_CCTV.Internet.tcpApp[1] 	rcvdPk:count 	353118
attr interpolationmode  none
attr source  rcvdPk
attr title  "packets received, count"
scalar ExamTaskNetwork_no_CCTV.Internet.tcpApp[1] 	rcvdPk:sum(packetBytes) 	544125323
attr interpolationmode  none
attr source  rcvdPk
attr title  "packets received, sum(packetBytes)"
statistic ExamTaskNetwork_no_CCTV.Internet.tcpApp[1] 	endToEndDelay:histogram
field count 353118
field mean 0
field stddev 0
field sum 0
field sqrsum 0
field min 0
field max 0
attr interpolationmode  none
attr source  messageAge(rcvdPk)
attr title  "end-to-end delay, histogram"
attr unit  s
bin	-INF	0
bin	-0.5	0
bin	-0.46666666666667	0
bin	-0.43333333333333	0
bin	-0.4	0
bin	-0.36666666666667	0
bin	-0.33333333333333	0
bin	-0.3	0
bin	-0.26666666666667	0
bin	-0.23333333333333	0
bin	-0.2	0
bin	-0.16666666666667	0
bin	-0.13333333333333	0
bin	-0.1	0
bin	-0.066666666666667	0
bin	-0.033333333333333	0
bin	0	353118
bin	0.033333333333333	0
bin	0.066666666666667	0
bin	0.1	0
bin	0.13333333333333	0
bin	0.16666666666667	0
bin	0.2	0
bin	0.23333333333333	0
bin	0.26666666666667	0
bin	0.3	0
bin	0.33333333333333	0
bin	0.36666666666667	0
bin	0.4	0
bin	0.43333333333333	0
bin	0.46666666666667	0
bin	0.5	0
