version 2
run ExamTaskNetwork-1-20160819-01:54:04-25224
attr configname ExamTaskNetwork
attr datetime 20160819-01:54:04
attr experiment ExamTaskNetwork
attr inifile omnetpp.ini
attr iterationvars "$simtime=500, $0=1"
attr iterationvars2 "$simtime=500, $0=1, $repetition=1"
attr measurement "$simtime=500, $0=1"
attr network ExamTaskNetwork
attr processid 25224
attr repetition 1
attr replication #1
attr resultdir results
attr runnumber 1
attr seedset 1
attr simtime 500

scalar . 	simtime 	500
scalar ExamTaskNetwork.ConferenceLaptop.networkLayer.arp 	initiatedARPResolution:count 	5
attr title  "ARP initiated resolutions, count"
scalar ExamTaskNetwork.ConferenceLaptop.networkLayer.arp 	sentReply:count 	4
attr title  "ARP replies sent, count"
scalar ExamTaskNetwork.ConferenceLaptop.networkLayer.arp 	sentReq:count 	5
attr title  "ARP request sent, count"
scalar ExamTaskNetwork.ConferenceLaptop.networkLayer.arp 	failedARPResolution:count 	0
attr title  "ARP failed resolutions, count"
scalar ExamTaskNetwork.ConferenceLaptop.networkLayer.arp 	completedARPResolution:count 	12
attr title  "ARP completed resolutions, count"
scalar ExamTaskNetwork.ConferenceLaptop.lo0.lo 	rcvdPkFromHL:count 	0
attr interpolationmode  none
attr source  packetReceivedFromUpper
attr title  "packets received from higher layer, count"
scalar ExamTaskNetwork.ConferenceLaptop.lo0.lo 	rcvdPkFromHL:sum(packetBytes) 	0
attr interpolationmode  none
attr source  packetReceivedFromUpper
attr title  "packets received from higher layer, sum(packetBytes)"
scalar ExamTaskNetwork.ConferenceLaptop.lo0.lo 	passedUpPk:count 	0
attr interpolationmode  none
attr source  packetSentToUpper
attr title  "packets passed to higher layer, count"
scalar ExamTaskNetwork.ConferenceLaptop.lo0.lo 	passedUpPk:sum(packetBytes) 	0
attr interpolationmode  none
attr source  packetSentToUpper
attr title  "packets passed to higher layer, sum(packetBytes)"
scalar ExamTaskNetwork.ConferenceLaptop.lo0.lo 	droppedPkBitError:count 	0
attr interpolationmode  none
attr source  dropPkBitError
attr title  "packets dropped/bit error, count"
scalar ExamTaskNetwork.ConferenceLaptop.lo0.lo 	droppedPkBitError:sum(packetBytes) 	0
attr interpolationmode  none
attr source  dropPkBitError
attr title  "packets dropped/bit error, sum(packetBytes)"
scalar ExamTaskNetwork.ConferenceLaptop.wlan[0].agent 	dropConfirm:count 	0
attr title  "dropped confirms, count"
scalar ExamTaskNetwork.ConferenceLaptop.wlan[0].agent 	acceptConfirm:count 	12
attr title  "accepted confirms, count"
scalar ExamTaskNetwork.ConferenceLaptop.wlan[0].agent 	sentRequest:count 	12
attr title  "sent requests, count"
scalar ExamTaskNetwork.ConferenceLaptop.wlan[0].mgmt 	dropPkByQueue:count 	0
attr interpolationmode  none
attr source  dropPkByQueue
attr title  "packets dropped by queue, count"
scalar ExamTaskNetwork.ConferenceLaptop.wlan[0].mgmt 	dropPkByQueue:sum(packetBytes) 	0
attr interpolationmode  none
attr source  dropPkByQueue
attr title  "packets dropped by queue, sum(packetBytes)"
scalar ExamTaskNetwork.ConferenceLaptop.wlan[0].mgmt 	dataQueueLen:max 	2
attr interpolationmode  sample-hold
attr title  "data queue length, max"
scalar ExamTaskNetwork.ConferenceLaptop.wlan[0].mgmt 	dataQueueLen:timeavg 	0.00018387630304
attr interpolationmode  sample-hold
attr title  "data queue length, timeavg"
scalar ExamTaskNetwork.ConferenceLaptop.wlan[0].mac 	"number of received packets" 	12201
scalar ExamTaskNetwork.ConferenceLaptop.wlan[0].mac 	"number of collisions" 	14700
scalar ExamTaskNetwork.ConferenceLaptop.wlan[0].mac 	"number of internal collisions" 	0
scalar ExamTaskNetwork.ConferenceLaptop.wlan[0].mac 	"number of retry for AC 0" 	3326
scalar ExamTaskNetwork.ConferenceLaptop.wlan[0].mac 	"sent and received bits" 	143093824
scalar ExamTaskNetwork.ConferenceLaptop.wlan[0].mac 	"sent packet within AC 0" 	12188
scalar ExamTaskNetwork.ConferenceLaptop.wlan[0].mac 	"sent in TXOP " 	0
scalar ExamTaskNetwork.ConferenceLaptop.wlan[0].mac 	"sentWithoutRetry AC 0" 	9607
scalar ExamTaskNetwork.ConferenceLaptop.wlan[0].mac 	"numGivenUp AC 0" 	1
scalar ExamTaskNetwork.ConferenceLaptop.wlan[0].mac 	"numDropped AC 0" 	0
scalar ExamTaskNetwork.ConferenceLaptop.wlan[0].mac 	rcvdPkFromHL:count 	12193
attr interpolationmode  none
attr source  packetReceivedFromUpper
attr title  "packets received from higher layer, count"
scalar ExamTaskNetwork.ConferenceLaptop.wlan[0].mac 	rcvdPkFromHL:sum(packetBytes) 	17888198
attr interpolationmode  none
attr source  packetReceivedFromUpper
attr title  "packets received from higher layer, sum(packetBytes)"
scalar ExamTaskNetwork.ConferenceLaptop.wlan[0].mac 	passedUpPk:count 	16984
attr interpolationmode  none
attr source  packetSentToUpper
attr title  "packets passed to higher layer, count"
scalar ExamTaskNetwork.ConferenceLaptop.wlan[0].mac 	passedUpPk:sum(packetBytes) 	18281312
attr interpolationmode  none
attr source  packetSentToUpper
attr title  "packets passed to higher layer, sum(packetBytes)"
scalar ExamTaskNetwork.ConferenceLaptop.wlan[0].mac 	rcvdPkFromLL:count 	1554962
attr interpolationmode  none
attr source  packetReceivedFromLower
attr title  "packets received from lower layer, count"
scalar ExamTaskNetwork.ConferenceLaptop.wlan[0].mac 	rcvdPkFromLL:sum(packetBytes) 	658013028
attr interpolationmode  none
attr source  packetReceivedFromLower
attr title  "packets received from lower layer, sum(packetBytes)"
scalar ExamTaskNetwork.ConferenceLaptop.wlan[0].mac 	sentDownPk:count 	27720
attr interpolationmode  none
attr source  packetSentToLower
attr title  "packets sent to lower layer, count"
scalar ExamTaskNetwork.ConferenceLaptop.wlan[0].mac 	sentDownPk:sum(packetBytes) 	22938288
attr interpolationmode  none
attr source  packetSentToLower
attr title  "packets sent to lower layer, sum(packetBytes)"
scalar ExamTaskNetwork.ConferenceLaptop.wlan[0].radio 	lossRate:min 	0
attr interpolationmode  backward-sample-hold
attr title  "packet loss rate, min"
scalar ExamTaskNetwork.ConferenceLaptop.wlan[0].radio 	lossRate:max 	0.1
attr interpolationmode  backward-sample-hold
attr title  "packet loss rate, max"
scalar ExamTaskNetwork.ConferenceLaptop.wlan[0].radio 	lossRate:timeavg 	0.0090965591292919
attr interpolationmode  backward-sample-hold
attr title  "packet loss rate, timeavg"
statistic ExamTaskNetwork.ConferenceLaptop.wlan[0].radio 	channelNo:histogram
field count 1
field mean 0
field stddev -nan
field sum 0
field sqrsum 0
field min 0
field max 0
attr interpolationmode  sample-hold
attr title  "channel no, histogram"
bin	-INF	0
bin	-0.5	0
bin	-0.46666666666667	0
bin	-0.43333333333333	0
bin	-0.4	0
bin	-0.36666666666667	0
bin	-0.33333333333333	0
bin	-0.3	0
bin	-0.26666666666667	0
bin	-0.23333333333333	0
bin	-0.2	0
bin	-0.16666666666667	0
bin	-0.13333333333333	0
bin	-0.1	0
bin	-0.066666666666667	0
bin	-0.033333333333333	0
bin	0	1
bin	0.033333333333333	0
bin	0.066666666666667	0
bin	0.1	0
bin	0.13333333333333	0
bin	0.16666666666667	0
bin	0.2	0
bin	0.23333333333333	0
bin	0.26666666666667	0
bin	0.3	0
bin	0.33333333333333	0
bin	0.36666666666667	0
bin	0.4	0
bin	0.43333333333333	0
bin	0.46666666666667	0
bin	0.5	0
scalar ExamTaskNetwork.ConferenceLaptop.wlan[0].radio 	radioState:count 	3169569
attr interpolationmode  sample-hold
attr title  "radio state (enum), count"
scalar ExamTaskNetwork.ConferenceLaptop.wlan[0].radio 	bitrate:min 	54000000
attr interpolationmode  sample-hold
attr title  "tx bitrate, min"
attr unit  bps
scalar ExamTaskNetwork.ConferenceLaptop.wlan[0].radio 	bitrate:max 	54000000
attr interpolationmode  sample-hold
attr title  "tx bitrate, max"
attr unit  bps
scalar ExamTaskNetwork.ConferenceLaptop.wlan[0].radio 	bitrate:timeavg 	54000000
attr interpolationmode  sample-hold
attr title  "tx bitrate, timeavg"
attr unit  bps
scalar ExamTaskNetwork.ConferenceLaptop.udpApp[0] 	"packets sent" 	12200
scalar ExamTaskNetwork.ConferenceLaptop.udpApp[0] 	"packets received" 	12152
scalar ExamTaskNetwork.ConferenceLaptop.udpApp[0] 	lateRatio 	0
scalar ExamTaskNetwork.ConferenceLaptop.udpApp[0] 	"discarded packets" 	0
statistic ExamTaskNetwork.ConferenceLaptop.udpApp[0] 	endToEndDelay:stats
field count 12152
field mean 0.018270858402978
field stddev 0.0068952209650183
field sum 222.02747131299
field sqrsum 4.6343405107036
field min 0.016439042831
field max 0.086684344997
attr source  VoIPPacketDelay
attr title  "VoIP Packet End-to-End Delay, stats"
attr unit  s
scalar ExamTaskNetwork.ConferenceLaptop.udpApp[0] 	sentPk:count 	12200
attr interpolationmode  none
attr source  sentPk
attr title  "packets sent, count"
scalar ExamTaskNetwork.ConferenceLaptop.udpApp[0] 	sentPk:sum(packetBytes) 	17080000
attr interpolationmode  none
attr source  sentPk
attr title  "packets sent, sum(packetBytes)"
scalar ExamTaskNetwork.ConferenceLaptop.udpApp[0] 	rcvdPk:count 	12152
attr interpolationmode  none
attr source  rcvdPk
attr title  "packets received, count"
scalar ExamTaskNetwork.ConferenceLaptop.udpApp[0] 	rcvdPk:sum(packetBytes) 	17012800
attr interpolationmode  none
attr source  rcvdPk
attr title  "packets received, sum(packetBytes)"
statistic ExamTaskNetwork.ConferenceLaptop.udpApp[0] 	rcvdPkLifetime:stats
field count 12152
field mean 0.018270858402978
field stddev 0.0068952209650183
field sum 222.02747131299
field sqrsum 4.6343405107036
field min 0.016439042831
field max 0.086684344997
attr interpolationmode  none
attr source  messageAge(rcvdPk)
attr title  "received packet lifetime, stats"
attr unit  s
scalar ExamTaskNetwork.ConferenceLaptop.udp 	droppedPkBadChecksum:count 	0
attr interpolationmode  none
attr title  "packets dropped (checksum error), count"
scalar ExamTaskNetwork.ConferenceLaptop.udp 	droppedPkWrongPort:count 	0
attr interpolationmode  none
attr title  "packets dropped (wrong port), count"
scalar ExamTaskNetwork.ConferenceLaptop.udp 	passedUpPk:count 	12152
attr interpolationmode  none
attr title  "packets passed up, count"
scalar ExamTaskNetwork.ConferenceLaptop.udp 	sentPk:count 	12200
attr interpolationmode  none
attr source  sentPk
attr title  "packets sent, count"
scalar ExamTaskNetwork.ConferenceLaptop.udp 	sentPk:sum(packetBytes) 	17177600
attr interpolationmode  none
attr source  sentPk
attr title  "packets sent, sum(packetBytes)"
scalar ExamTaskNetwork.ConferenceLaptop.udp 	rcvdPk:count 	12152
attr interpolationmode  none
attr source  rcvdPk
attr title  "packets received, count"
scalar ExamTaskNetwork.ConferenceLaptop.udp 	rcvdPk:sum(packetBytes) 	17110016
attr interpolationmode  none
attr source  rcvdPk
attr title  "packets received, sum(packetBytes)"
scalar ExamTaskNetwork.FTPLaptop.networkLayer.arp 	initiatedARPResolution:count 	5
attr title  "ARP initiated resolutions, count"
scalar ExamTaskNetwork.FTPLaptop.networkLayer.arp 	sentReply:count 	3
attr title  "ARP replies sent, count"
scalar ExamTaskNetwork.FTPLaptop.networkLayer.arp 	sentReq:count 	6
attr title  "ARP request sent, count"
scalar ExamTaskNetwork.FTPLaptop.networkLayer.arp 	failedARPResolution:count 	0
attr title  "ARP failed resolutions, count"
scalar ExamTaskNetwork.FTPLaptop.networkLayer.arp 	completedARPResolution:count 	13
attr title  "ARP completed resolutions, count"
scalar ExamTaskNetwork.FTPLaptop.lo0.lo 	rcvdPkFromHL:count 	0
attr interpolationmode  none
attr source  packetReceivedFromUpper
attr title  "packets received from higher layer, count"
scalar ExamTaskNetwork.FTPLaptop.lo0.lo 	rcvdPkFromHL:sum(packetBytes) 	0
attr interpolationmode  none
attr source  packetReceivedFromUpper
attr title  "packets received from higher layer, sum(packetBytes)"
scalar ExamTaskNetwork.FTPLaptop.lo0.lo 	passedUpPk:count 	0
attr interpolationmode  none
attr source  packetSentToUpper
attr title  "packets passed to higher layer, count"
scalar ExamTaskNetwork.FTPLaptop.lo0.lo 	passedUpPk:sum(packetBytes) 	0
attr interpolationmode  none
attr source  packetSentToUpper
attr title  "packets passed to higher layer, sum(packetBytes)"
scalar ExamTaskNetwork.FTPLaptop.lo0.lo 	droppedPkBitError:count 	0
attr interpolationmode  none
attr source  dropPkBitError
attr title  "packets dropped/bit error, count"
scalar ExamTaskNetwork.FTPLaptop.lo0.lo 	droppedPkBitError:sum(packetBytes) 	0
attr interpolationmode  none
attr source  dropPkBitError
attr title  "packets dropped/bit error, sum(packetBytes)"
scalar ExamTaskNetwork.FTPLaptop.wlan[0].agent 	dropConfirm:count 	0
attr title  "dropped confirms, count"
scalar ExamTaskNetwork.FTPLaptop.wlan[0].agent 	acceptConfirm:count 	12
attr title  "accepted confirms, count"
scalar ExamTaskNetwork.FTPLaptop.wlan[0].agent 	sentRequest:count 	12
attr title  "sent requests, count"
scalar ExamTaskNetwork.FTPLaptop.wlan[0].mgmt 	dropPkByQueue:count 	219
attr interpolationmode  none
attr source  dropPkByQueue
attr title  "packets dropped by queue, count"
scalar ExamTaskNetwork.FTPLaptop.wlan[0].mgmt 	dropPkByQueue:sum(packetBytes) 	339012
attr interpolationmode  none
attr source  dropPkByQueue
attr title  "packets dropped by queue, sum(packetBytes)"
scalar ExamTaskNetwork.FTPLaptop.wlan[0].mgmt 	dataQueueLen:max 	50
attr interpolationmode  sample-hold
attr title  "data queue length, max"
scalar ExamTaskNetwork.FTPLaptop.wlan[0].mgmt 	dataQueueLen:timeavg 	1.4291119730119
attr interpolationmode  sample-hold
attr title  "data queue length, timeavg"
scalar ExamTaskNetwork.FTPLaptop.wlan[0].mac 	"number of received packets" 	359036
scalar ExamTaskNetwork.FTPLaptop.wlan[0].mac 	"number of collisions" 	1236
scalar ExamTaskNetwork.FTPLaptop.wlan[0].mac 	"number of internal collisions" 	0
scalar ExamTaskNetwork.FTPLaptop.wlan[0].mac 	"number of retry for AC 0" 	30783
scalar ExamTaskNetwork.FTPLaptop.wlan[0].mac 	"sent and received bits" 	4460185048
scalar ExamTaskNetwork.FTPLaptop.wlan[0].mac 	"sent packet within AC 0" 	360233
scalar ExamTaskNetwork.FTPLaptop.wlan[0].mac 	"sent in TXOP " 	0
scalar ExamTaskNetwork.FTPLaptop.wlan[0].mac 	"sentWithoutRetry AC 0" 	332767
scalar ExamTaskNetwork.FTPLaptop.wlan[0].mac 	"numGivenUp AC 0" 	0
scalar ExamTaskNetwork.FTPLaptop.wlan[0].mac 	"numDropped AC 0" 	0
scalar ExamTaskNetwork.FTPLaptop.wlan[0].mac 	rcvdPkFromHL:count 	360239
attr interpolationmode  none
attr source  packetReceivedFromUpper
attr title  "packets received from higher layer, count"
scalar ExamTaskNetwork.FTPLaptop.wlan[0].mac 	rcvdPkFromHL:sum(packetBytes) 	557526227
attr interpolationmode  none
attr source  packetReceivedFromUpper
attr title  "packets received from higher layer, sum(packetBytes)"
scalar ExamTaskNetwork.FTPLaptop.wlan[0].mac 	passedUpPk:count 	363818
attr interpolationmode  none
attr source  packetSentToUpper
attr title  "packets passed to higher layer, count"
scalar ExamTaskNetwork.FTPLaptop.wlan[0].mac 	passedUpPk:sum(packetBytes) 	29813104
attr interpolationmode  none
attr source  packetSentToUpper
attr title  "packets passed to higher layer, sum(packetBytes)"
scalar ExamTaskNetwork.FTPLaptop.wlan[0].mac 	rcvdPkFromLL:count 	832625
attr interpolationmode  none
attr source  packetReceivedFromLower
attr title  "packets received from lower layer, count"
scalar ExamTaskNetwork.FTPLaptop.wlan[0].mac 	rcvdPkFromLL:sum(packetBytes) 	89338513
attr interpolationmode  none
attr source  packetReceivedFromLower
attr title  "packets received from lower layer, sum(packetBytes)"
scalar ExamTaskNetwork.FTPLaptop.wlan[0].mac 	sentDownPk:count 	750057
attr interpolationmode  none
attr source  packetSentToLower
attr title  "packets sent to lower layer, count"
scalar ExamTaskNetwork.FTPLaptop.wlan[0].mac 	sentDownPk:sum(packetBytes) 	610194219
attr interpolationmode  none
attr source  packetSentToLower
attr title  "packets sent to lower layer, sum(packetBytes)"
scalar ExamTaskNetwork.FTPLaptop.wlan[0].radio 	lossRate:min 	0
attr interpolationmode  backward-sample-hold
attr title  "packet loss rate, min"
scalar ExamTaskNetwork.FTPLaptop.wlan[0].radio 	lossRate:max 	0.06
attr interpolationmode  backward-sample-hold
attr title  "packet loss rate, max"
scalar ExamTaskNetwork.FTPLaptop.wlan[0].radio 	lossRate:timeavg 	0.0014648744299069
attr interpolationmode  backward-sample-hold
attr title  "packet loss rate, timeavg"
statistic ExamTaskNetwork.FTPLaptop.wlan[0].radio 	channelNo:histogram
field count 1
field mean 0
field stddev -nan
field sum 0
field sqrsum 0
field min 0
field max 0
attr interpolationmode  sample-hold
attr title  "channel no, histogram"
bin	-INF	0
bin	-0.5	0
bin	-0.46666666666667	0
bin	-0.43333333333333	0
bin	-0.4	0
bin	-0.36666666666667	0
bin	-0.33333333333333	0
bin	-0.3	0
bin	-0.26666666666667	0
bin	-0.23333333333333	0
bin	-0.2	0
bin	-0.16666666666667	0
bin	-0.13333333333333	0
bin	-0.1	0
bin	-0.066666666666667	0
bin	-0.033333333333333	0
bin	0	1
bin	0.033333333333333	0
bin	0.066666666666667	0
bin	0.1	0
bin	0.13333333333333	0
bin	0.16666666666667	0
bin	0.2	0
bin	0.23333333333333	0
bin	0.26666666666667	0
bin	0.3	0
bin	0.33333333333333	0
bin	0.36666666666667	0
bin	0.4	0
bin	0.43333333333333	0
bin	0.46666666666667	0
bin	0.5	0
scalar ExamTaskNetwork.FTPLaptop.wlan[0].radio 	radioState:count 	3180627
attr interpolationmode  sample-hold
attr title  "radio state (enum), count"
scalar ExamTaskNetwork.FTPLaptop.wlan[0].radio 	bitrate:min 	54000000
attr interpolationmode  sample-hold
attr title  "tx bitrate, min"
attr unit  bps
scalar ExamTaskNetwork.FTPLaptop.wlan[0].radio 	bitrate:max 	54000000
attr interpolationmode  sample-hold
attr title  "tx bitrate, max"
attr unit  bps
scalar ExamTaskNetwork.FTPLaptop.wlan[0].radio 	bitrate:timeavg 	54000000
attr interpolationmode  sample-hold
attr title  "tx bitrate, timeavg"
attr unit  bps
scalar ExamTaskNetwork.FTPLaptop.tcpApp[0] 	bytesRcvd 	0
scalar ExamTaskNetwork.FTPLaptop.tcpApp[0] 	bytesSent 	2097152000
scalar ExamTaskNetwork.FTPLaptop.tcpApp[0] 	sentPk:count 	1
attr interpolationmode  none
attr source  sentPk
attr title  "packets sent, count"
scalar ExamTaskNetwork.FTPLaptop.tcpApp[0] 	sentPk:sum(packetBytes) 	2097152000
attr interpolationmode  none
attr source  sentPk
attr title  "packets sent, sum(packetBytes)"
scalar ExamTaskNetwork.FTPLaptop.tcpApp[0] 	rcvdPk:count 	0
attr interpolationmode  none
attr source  rcvdPk
attr title  "packets received, count"
scalar ExamTaskNetwork.FTPLaptop.tcpApp[0] 	rcvdPk:sum(packetBytes) 	0
attr interpolationmode  none
attr source  rcvdPk
attr title  "packets received, sum(packetBytes)"
statistic ExamTaskNetwork.FTPLaptop.tcpApp[0] 	endToEndDelay:histogram
field count 0
field mean -nan
field stddev -nan
field sum 0
field sqrsum 0
field min -nan
field max -nan
attr interpolationmode  none
attr source  messageAge(rcvdPk)
attr title  "end-to-end delay, histogram"
attr unit  s
bin	-INF	0
bin	-0.5	0
bin	-0.46666666666667	0
bin	-0.43333333333333	0
bin	-0.4	0
bin	-0.36666666666667	0
bin	-0.33333333333333	0
bin	-0.3	0
bin	-0.26666666666667	0
bin	-0.23333333333333	0
bin	-0.2	0
bin	-0.16666666666667	0
bin	-0.13333333333333	0
bin	-0.1	0
bin	-0.066666666666667	0
bin	-0.033333333333333	0
bin	0	0
bin	0.033333333333333	0
bin	0.066666666666667	0
bin	0.1	0
bin	0.13333333333333	0
bin	0.16666666666667	0
bin	0.2	0
bin	0.23333333333333	0
bin	0.26666666666667	0
bin	0.3	0
bin	0.33333333333333	0
bin	0.36666666666667	0
bin	0.4	0
bin	0.43333333333333	0
bin	0.46666666666667	0
bin	0.5	0
scalar ExamTaskNetwork.BrowsingLaptop[0].networkLayer.arp 	initiatedARPResolution:count 	4
attr title  "ARP initiated resolutions, count"
scalar ExamTaskNetwork.BrowsingLaptop[0].networkLayer.arp 	sentReply:count 	1
attr title  "ARP replies sent, count"
scalar ExamTaskNetwork.BrowsingLaptop[0].networkLayer.arp 	sentReq:count 	4
attr title  "ARP request sent, count"
scalar ExamTaskNetwork.BrowsingLaptop[0].networkLayer.arp 	failedARPResolution:count 	0
attr title  "ARP failed resolutions, count"
scalar ExamTaskNetwork.BrowsingLaptop[0].networkLayer.arp 	completedARPResolution:count 	7
attr title  "ARP completed resolutions, count"
scalar ExamTaskNetwork.BrowsingLaptop[0].lo0.lo 	rcvdPkFromHL:count 	0
attr interpolationmode  none
attr source  packetReceivedFromUpper
attr title  "packets received from higher layer, count"
scalar ExamTaskNetwork.BrowsingLaptop[0].lo0.lo 	rcvdPkFromHL:sum(packetBytes) 	0
attr interpolationmode  none
attr source  packetReceivedFromUpper
attr title  "packets received from higher layer, sum(packetBytes)"
scalar ExamTaskNetwork.BrowsingLaptop[0].lo0.lo 	passedUpPk:count 	0
attr interpolationmode  none
attr source  packetSentToUpper
attr title  "packets passed to higher layer, count"
scalar ExamTaskNetwork.BrowsingLaptop[0].lo0.lo 	passedUpPk:sum(packetBytes) 	0
attr interpolationmode  none
attr source  packetSentToUpper
attr title  "packets passed to higher layer, sum(packetBytes)"
scalar ExamTaskNetwork.BrowsingLaptop[0].lo0.lo 	droppedPkBitError:count 	0
attr interpolationmode  none
attr source  dropPkBitError
attr title  "packets dropped/bit error, count"
scalar ExamTaskNetwork.BrowsingLaptop[0].lo0.lo 	droppedPkBitError:sum(packetBytes) 	0
attr interpolationmode  none
attr source  dropPkBitError
attr title  "packets dropped/bit error, sum(packetBytes)"
scalar ExamTaskNetwork.BrowsingLaptop[0].wlan[0].agent 	dropConfirm:count 	0
attr title  "dropped confirms, count"
scalar ExamTaskNetwork.BrowsingLaptop[0].wlan[0].agent 	acceptConfirm:count 	12
attr title  "accepted confirms, count"
scalar ExamTaskNetwork.BrowsingLaptop[0].wlan[0].agent 	sentRequest:count 	12
attr title  "sent requests, count"
scalar ExamTaskNetwork.BrowsingLaptop[0].wlan[0].mgmt 	dropPkByQueue:count 	0
attr interpolationmode  none
attr source  dropPkByQueue
attr title  "packets dropped by queue, count"
scalar ExamTaskNetwork.BrowsingLaptop[0].wlan[0].mgmt 	dropPkByQueue:sum(packetBytes) 	0
attr interpolationmode  none
attr source  dropPkByQueue
attr title  "packets dropped by queue, sum(packetBytes)"
scalar ExamTaskNetwork.BrowsingLaptop[0].wlan[0].mgmt 	dataQueueLen:max 	2
attr interpolationmode  sample-hold
attr title  "data queue length, max"
scalar ExamTaskNetwork.BrowsingLaptop[0].wlan[0].mgmt 	dataQueueLen:timeavg 	2.320085248e-05
attr interpolationmode  sample-hold
attr title  "data queue length, timeavg"
scalar ExamTaskNetwork.BrowsingLaptop[0].wlan[0].mac 	"number of received packets" 	19582
scalar ExamTaskNetwork.BrowsingLaptop[0].wlan[0].mac 	"number of collisions" 	17550
scalar ExamTaskNetwork.BrowsingLaptop[0].wlan[0].mac 	"number of internal collisions" 	0
scalar ExamTaskNetwork.BrowsingLaptop[0].wlan[0].mac 	"number of retry for AC 0" 	41
scalar ExamTaskNetwork.BrowsingLaptop[0].wlan[0].mac 	"sent and received bits" 	7719600
scalar ExamTaskNetwork.BrowsingLaptop[0].wlan[0].mac 	"sent packet within AC 0" 	9473
scalar ExamTaskNetwork.BrowsingLaptop[0].wlan[0].mac 	"sent in TXOP " 	0
scalar ExamTaskNetwork.BrowsingLaptop[0].wlan[0].mac 	"sentWithoutRetry AC 0" 	9442
scalar ExamTaskNetwork.BrowsingLaptop[0].wlan[0].mac 	"numGivenUp AC 0" 	0
scalar ExamTaskNetwork.BrowsingLaptop[0].wlan[0].mac 	"numDropped AC 0" 	0
scalar ExamTaskNetwork.BrowsingLaptop[0].wlan[0].mac 	rcvdPkFromHL:count 	9477
attr interpolationmode  none
attr source  packetReceivedFromUpper
attr title  "packets received from higher layer, count"
scalar ExamTaskNetwork.BrowsingLaptop[0].wlan[0].mac 	rcvdPkFromHL:sum(packetBytes) 	964950
attr interpolationmode  none
attr source  packetReceivedFromUpper
attr title  "packets received from higher layer, sum(packetBytes)"
scalar ExamTaskNetwork.BrowsingLaptop[0].wlan[0].mac 	passedUpPk:count 	24366
attr interpolationmode  none
attr source  packetSentToUpper
attr title  "packets passed to higher layer, count"
scalar ExamTaskNetwork.BrowsingLaptop[0].wlan[0].mac 	passedUpPk:sum(packetBytes) 	16527643
attr interpolationmode  none
attr source  packetSentToUpper
attr title  "packets passed to higher layer, sum(packetBytes)"
scalar ExamTaskNetwork.BrowsingLaptop[0].wlan[0].mac 	rcvdPkFromLL:count 	1553582
attr interpolationmode  none
attr source  packetReceivedFromLower
attr title  "packets received from lower layer, count"
scalar ExamTaskNetwork.BrowsingLaptop[0].wlan[0].mac 	rcvdPkFromLL:sum(packetBytes) 	678078142
attr interpolationmode  none
attr source  packetReceivedFromLower
attr title  "packets received from lower layer, sum(packetBytes)"
scalar ExamTaskNetwork.BrowsingLaptop[0].wlan[0].mac 	sentDownPk:count 	29100
attr interpolationmode  none
attr source  packetSentToLower
attr title  "packets sent to lower layer, count"
scalar ExamTaskNetwork.BrowsingLaptop[0].wlan[0].mac 	sentDownPk:sum(packetBytes) 	1267384
attr interpolationmode  none
attr source  packetSentToLower
attr title  "packets sent to lower layer, sum(packetBytes)"
scalar ExamTaskNetwork.BrowsingLaptop[0].wlan[0].radio 	lossRate:min 	0
attr interpolationmode  backward-sample-hold
attr title  "packet loss rate, min"
scalar ExamTaskNetwork.BrowsingLaptop[0].wlan[0].radio 	lossRate:max 	0.12
attr interpolationmode  backward-sample-hold
attr title  "packet loss rate, max"
scalar ExamTaskNetwork.BrowsingLaptop[0].wlan[0].radio 	lossRate:timeavg 	0.010883867925892
attr interpolationmode  backward-sample-hold
attr title  "packet loss rate, timeavg"
statistic ExamTaskNetwork.BrowsingLaptop[0].wlan[0].radio 	channelNo:histogram
field count 1
field mean 0
field stddev -nan
field sum 0
field sqrsum 0
field min 0
field max 0
attr interpolationmode  sample-hold
attr title  "channel no, histogram"
bin	-INF	0
bin	-0.5	0
bin	-0.46666666666667	0
bin	-0.43333333333333	0
bin	-0.4	0
bin	-0.36666666666667	0
bin	-0.33333333333333	0
bin	-0.3	0
bin	-0.26666666666667	0
bin	-0.23333333333333	0
bin	-0.2	0
bin	-0.16666666666667	0
bin	-0.13333333333333	0
bin	-0.1	0
bin	-0.066666666666667	0
bin	-0.033333333333333	0
bin	0	1
bin	0.033333333333333	0
bin	0.066666666666667	0
bin	0.1	0
bin	0.13333333333333	0
bin	0.16666666666667	0
bin	0.2	0
bin	0.23333333333333	0
bin	0.26666666666667	0
bin	0.3	0
bin	0.33333333333333	0
bin	0.36666666666667	0
bin	0.4	0
bin	0.43333333333333	0
bin	0.46666666666667	0
bin	0.5	0
scalar ExamTaskNetwork.BrowsingLaptop[0].wlan[0].radio 	radioState:count 	3165413
attr interpolationmode  sample-hold
attr title  "radio state (enum), count"
scalar ExamTaskNetwork.BrowsingLaptop[0].wlan[0].radio 	bitrate:min 	54000000
attr interpolationmode  sample-hold
attr title  "tx bitrate, min"
attr unit  bps
scalar ExamTaskNetwork.BrowsingLaptop[0].wlan[0].radio 	bitrate:max 	54000000
attr interpolationmode  sample-hold
attr title  "tx bitrate, max"
attr unit  bps
scalar ExamTaskNetwork.BrowsingLaptop[0].wlan[0].radio 	bitrate:timeavg 	54000000
attr interpolationmode  sample-hold
attr title  "tx bitrate, timeavg"
attr unit  bps
scalar ExamTaskNetwork.BrowsingLaptop[0].tcpApp[0] 	numActiveSessions:max 	1
attr interpolationmode  sample-hold
attr source  sum(connect)
attr title  "number of active sessions, max"
scalar ExamTaskNetwork.BrowsingLaptop[0].tcpApp[0] 	numActiveSessions:timeavg 	0.31747914049792
attr interpolationmode  sample-hold
attr source  sum(connect)
attr title  "number of active sessions, timeavg"
scalar ExamTaskNetwork.BrowsingLaptop[0].tcpApp[0] 	numSessions:last 	23
attr source  sum(connect+1)/2
attr title  "total number of sessions, last"
scalar ExamTaskNetwork.BrowsingLaptop[0].tcpApp[0] 	sentPk:count 	23
attr interpolationmode  none
attr source  sentPk
attr title  "packets sent, count"
scalar ExamTaskNetwork.BrowsingLaptop[0].tcpApp[0] 	sentPk:sum(packetBytes) 	188416
attr interpolationmode  none
attr source  sentPk
attr title  "packets sent, sum(packetBytes)"
scalar ExamTaskNetwork.BrowsingLaptop[0].tcpApp[0] 	rcvdPk:count 	23
attr interpolationmode  none
attr source  rcvdPk
attr title  "packets received, count"
scalar ExamTaskNetwork.BrowsingLaptop[0].tcpApp[0] 	rcvdPk:sum(packetBytes) 	13074769
attr interpolationmode  none
attr source  rcvdPk
attr title  "packets received, sum(packetBytes)"
statistic ExamTaskNetwork.BrowsingLaptop[0].tcpApp[0] 	endToEndDelay:histogram
field count 23
field mean 6.7795295005669
field stddev 4.7267841154068
field sum 155.92917851304
field sqrsum 1548.6612033489
field min 0.473631703047
field max 22.429165900921
attr interpolationmode  none
attr source  messageAge(rcvdPk)
attr title  "end-to-end delay, histogram"
attr unit  s
bin	-INF	0
bin	-10.50413539589	0
bin	-9.0404331160317	0
bin	-7.5767308361735	0
bin	-6.1130285563152	0
bin	-4.6493262764569	0
bin	-3.1856239965987	0
bin	-1.7219217167404	0
bin	-0.25821943688213	1
bin	1.2054828429761	1
bin	2.6691851228344	4
bin	4.1328874026927	6
bin	5.5965896825509	3
bin	7.0602919624092	2
bin	8.5239942422675	1
bin	9.9876965221257	2
bin	11.451398801984	1
bin	12.915101081842	1
bin	14.378803361701	0
bin	15.842505641559	0
bin	17.306207921417	0
bin	18.769910201275	0
bin	20.233612481134	0
bin	21.697314760992	1
bin	23.16101704085	0
bin	24.624719320708	0
bin	26.088421600567	0
bin	27.552123880425	0
bin	29.015826160283	0
bin	30.479528440141	0
bin	31.94323072	0
bin	33.406932999858	0
scalar ExamTaskNetwork.CCTVCamera.networkLayer.arp 	initiatedARPResolution:count 	5
attr title  "ARP initiated resolutions, count"
scalar ExamTaskNetwork.CCTVCamera.networkLayer.arp 	sentReply:count 	0
attr title  "ARP replies sent, count"
scalar ExamTaskNetwork.CCTVCamera.networkLayer.arp 	sentReq:count 	5
attr title  "ARP request sent, count"
scalar ExamTaskNetwork.CCTVCamera.networkLayer.arp 	failedARPResolution:count 	0
attr title  "ARP failed resolutions, count"
scalar ExamTaskNetwork.CCTVCamera.networkLayer.arp 	completedARPResolution:count 	5
attr title  "ARP completed resolutions, count"
scalar ExamTaskNetwork.CCTVCamera.lo0.lo 	rcvdPkFromHL:count 	0
attr interpolationmode  none
attr source  packetReceivedFromUpper
attr title  "packets received from higher layer, count"
scalar ExamTaskNetwork.CCTVCamera.lo0.lo 	rcvdPkFromHL:sum(packetBytes) 	0
attr interpolationmode  none
attr source  packetReceivedFromUpper
attr title  "packets received from higher layer, sum(packetBytes)"
scalar ExamTaskNetwork.CCTVCamera.lo0.lo 	passedUpPk:count 	0
attr interpolationmode  none
attr source  packetSentToUpper
attr title  "packets passed to higher layer, count"
scalar ExamTaskNetwork.CCTVCamera.lo0.lo 	passedUpPk:sum(packetBytes) 	0
attr interpolationmode  none
attr source  packetSentToUpper
attr title  "packets passed to higher layer, sum(packetBytes)"
scalar ExamTaskNetwork.CCTVCamera.lo0.lo 	droppedPkBitError:count 	0
attr interpolationmode  none
attr source  dropPkBitError
attr title  "packets dropped/bit error, count"
scalar ExamTaskNetwork.CCTVCamera.lo0.lo 	droppedPkBitError:sum(packetBytes) 	0
attr interpolationmode  none
attr source  dropPkBitError
attr title  "packets dropped/bit error, sum(packetBytes)"
scalar ExamTaskNetwork.CCTVCamera.eth[0].mac 	"simulated time" 	500
scalar ExamTaskNetwork.CCTVCamera.eth[0].mac 	full-duplex 	1
scalar ExamTaskNetwork.CCTVCamera.eth[0].mac 	"frames/sec sent" 	169.76
scalar ExamTaskNetwork.CCTVCamera.eth[0].mac 	"frames/sec rcvd" 	0.132
scalar ExamTaskNetwork.CCTVCamera.eth[0].mac 	"bits/sec sent" 	2039721.12
scalar ExamTaskNetwork.CCTVCamera.eth[0].mac 	"bits/sec rcvd" 	77.344
scalar ExamTaskNetwork.CCTVCamera.eth[0].mac 	"rx channel idle (%)" 	99.999914208
scalar ExamTaskNetwork.CCTVCamera.eth[0].mac 	"rx channel utilization (%)" 	8.5792e-05
scalar ExamTaskNetwork.CCTVCamera.eth[0].mac 	rxPkFromHL:count 	84880
attr interpolationmode  none
attr source  rxPkFromHL
attr title  "packet bytes from higher layer, count"
scalar ExamTaskNetwork.CCTVCamera.eth[0].mac 	rxPkFromHL:sum(packetBytes) 	127482570
attr interpolationmode  none
attr source  rxPkFromHL
attr title  "packet bytes from higher layer, sum(packetBytes)"
scalar ExamTaskNetwork.CCTVCamera.eth[0].mac 	rxPausePkUnits:count 	0
attr interpolationmode  none
attr title  "pause units received, count"
scalar ExamTaskNetwork.CCTVCamera.eth[0].mac 	rxPausePkUnits:sum 	0
attr interpolationmode  none
attr title  "pause units received, sum"
scalar ExamTaskNetwork.CCTVCamera.eth[0].mac 	txPausePkUnits:count 	0
attr interpolationmode  none
attr title  "pause units sent, count"
scalar ExamTaskNetwork.CCTVCamera.eth[0].mac 	txPausePkUnits:sum 	0
attr interpolationmode  none
attr title  "pause units sent, sum"
scalar ExamTaskNetwork.CCTVCamera.eth[0].mac 	txPk:count 	84880
attr interpolationmode  none
attr source  txPk
attr title  "packets transmitted, count"
scalar ExamTaskNetwork.CCTVCamera.eth[0].mac 	txPk:sum(packetBytes) 	127482570
attr interpolationmode  none
attr source  txPk
attr title  "packets transmitted, sum(packetBytes)"
scalar ExamTaskNetwork.CCTVCamera.eth[0].mac 	droppedPkNotForUs:count 	0
attr interpolationmode  none
attr source  dropPkNotForUs
attr title  "packets dropped/not for us, count"
scalar ExamTaskNetwork.CCTVCamera.eth[0].mac 	droppedPkNotForUs:sum(packetBytes) 	0
attr interpolationmode  none
attr source  dropPkNotForUs
attr title  "packets dropped/not for us, sum(packetBytes)"
scalar ExamTaskNetwork.CCTVCamera.eth[0].mac 	passedUpPk:count 	66
attr interpolationmode  none
attr source  packetSentToUpper
attr title  "packets passed to higher layer, count"
scalar ExamTaskNetwork.CCTVCamera.eth[0].mac 	passedUpPk:sum(packetBytes) 	4834
attr interpolationmode  none
attr source  packetSentToUpper
attr title  "packets passed to higher layer, sum(packetBytes)"
scalar ExamTaskNetwork.CCTVCamera.eth[0].mac 	droppedPkBitError:count 	0
attr interpolationmode  none
attr source  dropPkBitError
attr title  "packets dropped/bit error, count"
scalar ExamTaskNetwork.CCTVCamera.eth[0].mac 	droppedPkBitError:sum(packetBytes) 	0
attr interpolationmode  none
attr source  dropPkBitError
attr title  "packets dropped/bit error, sum(packetBytes)"
scalar ExamTaskNetwork.CCTVCamera.eth[0].mac 	droppedPkIfaceDown:count 	0
attr interpolationmode  none
attr source  dropPkIfaceDown
attr title  "packets dropped/interface down, count"
scalar ExamTaskNetwork.CCTVCamera.eth[0].mac 	droppedPkIfaceDown:sum(packetBytes) 	0
attr interpolationmode  none
attr source  dropPkIfaceDown
attr title  "packets dropped/interface down, sum(packetBytes)"
scalar ExamTaskNetwork.CCTVCamera.eth[0].mac 	rxPkOk:count 	66
attr interpolationmode  none
attr source  rxPkOk
attr title  "packets received OK, count"
scalar ExamTaskNetwork.CCTVCamera.eth[0].mac 	rxPkOk:sum(packetBytes) 	4834
attr interpolationmode  none
attr source  rxPkOk
attr title  "packets received OK, sum(packetBytes)"
scalar ExamTaskNetwork.CCTVCamera.eth[0].encap 	pauseSent:count 	0
attr title  "pause sent, count"
scalar ExamTaskNetwork.CCTVCamera.eth[0].encap 	pauseSent:sum 	0
attr title  "pause sent, sum"
scalar ExamTaskNetwork.CCTVCamera.eth[0].encap 	decapPk:count 	66
attr interpolationmode  none
attr source  decapPk
attr title  "packets decapsulated, count"
scalar ExamTaskNetwork.CCTVCamera.eth[0].encap 	decapPk:sum(packetBytes) 	3556
attr interpolationmode  none
attr source  decapPk
attr title  "packets decapsulated, sum(packetBytes)"
scalar ExamTaskNetwork.CCTVCamera.eth[0].encap 	encapPk:count 	84880
attr interpolationmode  none
attr source  encapPk
attr title  "packets encapsulated, count"
scalar ExamTaskNetwork.CCTVCamera.eth[0].encap 	encapPk:sum(packetBytes) 	125954640
attr interpolationmode  none
attr source  encapPk
attr title  "packets encapsulated, sum(packetBytes)"
scalar ExamTaskNetwork.CCTVCamera.udpApp[0] 	"packets sent" 	12126
scalar ExamTaskNetwork.CCTVCamera.udpApp[0] 	"packets received" 	0
scalar ExamTaskNetwork.CCTVCamera.udpApp[0] 	lateRatio 	-nan
scalar ExamTaskNetwork.CCTVCamera.udpApp[0] 	"discarded packets" 	0
statistic ExamTaskNetwork.CCTVCamera.udpApp[0] 	endToEndDelay:stats
field count 0
field mean -nan
field stddev -nan
field sum 0
field sqrsum 0
field min -nan
field max -nan
attr source  VoIPPacketDelay
attr title  "VoIP Packet End-to-End Delay, stats"
attr unit  s
scalar ExamTaskNetwork.CCTVCamera.udpApp[0] 	sentPk:count 	12126
attr interpolationmode  none
attr source  sentPk
attr title  "packets sent, count"
scalar ExamTaskNetwork.CCTVCamera.udpApp[0] 	sentPk:sum(packetBytes) 	124170240
attr interpolationmode  none
attr source  sentPk
attr title  "packets sent, sum(packetBytes)"
scalar ExamTaskNetwork.CCTVCamera.udpApp[0] 	rcvdPk:count 	0
attr interpolationmode  none
attr source  rcvdPk
attr title  "packets received, count"
scalar ExamTaskNetwork.CCTVCamera.udpApp[0] 	rcvdPk:sum(packetBytes) 	0
attr interpolationmode  none
attr source  rcvdPk
attr title  "packets received, sum(packetBytes)"
statistic ExamTaskNetwork.CCTVCamera.udpApp[0] 	rcvdPkLifetime:stats
field count 0
field mean -nan
field stddev -nan
field sum 0
field sqrsum 0
field min -nan
field max -nan
attr interpolationmode  none
attr source  messageAge(rcvdPk)
attr title  "received packet lifetime, stats"
attr unit  s
scalar ExamTaskNetwork.CCTVCamera.udp 	droppedPkBadChecksum:count 	0
attr interpolationmode  none
attr title  "packets dropped (checksum error), count"
scalar ExamTaskNetwork.CCTVCamera.udp 	droppedPkWrongPort:count 	0
attr interpolationmode  none
attr title  "packets dropped (wrong port), count"
scalar ExamTaskNetwork.CCTVCamera.udp 	passedUpPk:count 	0
attr interpolationmode  none
attr title  "packets passed up, count"
scalar ExamTaskNetwork.CCTVCamera.udp 	sentPk:count 	12125
attr interpolationmode  none
attr source  sentPk
attr title  "packets sent, count"
scalar ExamTaskNetwork.CCTVCamera.udp 	sentPk:sum(packetBytes) 	124257000
attr interpolationmode  none
attr source  sentPk
attr title  "packets sent, sum(packetBytes)"
scalar ExamTaskNetwork.CCTVCamera.udp 	rcvdPk:count 	0
attr interpolationmode  none
attr source  rcvdPk
attr title  "packets received, count"
scalar ExamTaskNetwork.CCTVCamera.udp 	rcvdPk:sum(packetBytes) 	0
attr interpolationmode  none
attr source  rcvdPk
attr title  "packets received, sum(packetBytes)"
scalar ExamTaskNetwork.ProfessorsLaptop.networkLayer.arp 	initiatedARPResolution:count 	5
attr title  "ARP initiated resolutions, count"
scalar ExamTaskNetwork.ProfessorsLaptop.networkLayer.arp 	sentReply:count 	3
attr title  "ARP replies sent, count"
scalar ExamTaskNetwork.ProfessorsLaptop.networkLayer.arp 	sentReq:count 	5
attr title  "ARP request sent, count"
scalar ExamTaskNetwork.ProfessorsLaptop.networkLayer.arp 	failedARPResolution:count 	0
attr title  "ARP failed resolutions, count"
scalar ExamTaskNetwork.ProfessorsLaptop.networkLayer.arp 	completedARPResolution:count 	8
attr title  "ARP completed resolutions, count"
scalar ExamTaskNetwork.ProfessorsLaptop.lo0.lo 	rcvdPkFromHL:count 	0
attr interpolationmode  none
attr source  packetReceivedFromUpper
attr title  "packets received from higher layer, count"
scalar ExamTaskNetwork.ProfessorsLaptop.lo0.lo 	rcvdPkFromHL:sum(packetBytes) 	0
attr interpolationmode  none
attr source  packetReceivedFromUpper
attr title  "packets received from higher layer, sum(packetBytes)"
scalar ExamTaskNetwork.ProfessorsLaptop.lo0.lo 	passedUpPk:count 	0
attr interpolationmode  none
attr source  packetSentToUpper
attr title  "packets passed to higher layer, count"
scalar ExamTaskNetwork.ProfessorsLaptop.lo0.lo 	passedUpPk:sum(packetBytes) 	0
attr interpolationmode  none
attr source  packetSentToUpper
attr title  "packets passed to higher layer, sum(packetBytes)"
scalar ExamTaskNetwork.ProfessorsLaptop.lo0.lo 	droppedPkBitError:count 	0
attr interpolationmode  none
attr source  dropPkBitError
attr title  "packets dropped/bit error, count"
scalar ExamTaskNetwork.ProfessorsLaptop.lo0.lo 	droppedPkBitError:sum(packetBytes) 	0
attr interpolationmode  none
attr source  dropPkBitError
attr title  "packets dropped/bit error, sum(packetBytes)"
scalar ExamTaskNetwork.ProfessorsLaptop.eth[0].mac 	"simulated time" 	500
scalar ExamTaskNetwork.ProfessorsLaptop.eth[0].mac 	full-duplex 	1
scalar ExamTaskNetwork.ProfessorsLaptop.eth[0].mac 	"frames/sec sent" 	24.416
scalar ExamTaskNetwork.ProfessorsLaptop.eth[0].mac 	"frames/sec rcvd" 	24.246
scalar ExamTaskNetwork.ProfessorsLaptop.eth[0].mac 	"bits/sec sent" 	282267.392
scalar ExamTaskNetwork.ProfessorsLaptop.eth[0].mac 	"bits/sec rcvd" 	280300.832
scalar ExamTaskNetwork.ProfessorsLaptop.eth[0].mac 	"rx channel idle (%)" 	99.718147424
scalar ExamTaskNetwork.ProfessorsLaptop.eth[0].mac 	"rx channel utilization (%)" 	0.281852576
scalar ExamTaskNetwork.ProfessorsLaptop.eth[0].mac 	rxPkFromHL:count 	12208
attr interpolationmode  none
attr source  rxPkFromHL
attr title  "packet bytes from higher layer, count"
scalar ExamTaskNetwork.ProfessorsLaptop.eth[0].mac 	rxPkFromHL:sum(packetBytes) 	17641712
attr interpolationmode  none
attr source  rxPkFromHL
attr title  "packet bytes from higher layer, sum(packetBytes)"
scalar ExamTaskNetwork.ProfessorsLaptop.eth[0].mac 	rxPausePkUnits:count 	0
attr interpolationmode  none
attr title  "pause units received, count"
scalar ExamTaskNetwork.ProfessorsLaptop.eth[0].mac 	rxPausePkUnits:sum 	0
attr interpolationmode  none
attr title  "pause units received, sum"
scalar ExamTaskNetwork.ProfessorsLaptop.eth[0].mac 	txPausePkUnits:count 	0
attr interpolationmode  none
attr title  "pause units sent, count"
scalar ExamTaskNetwork.ProfessorsLaptop.eth[0].mac 	txPausePkUnits:sum 	0
attr interpolationmode  none
attr title  "pause units sent, sum"
scalar ExamTaskNetwork.ProfessorsLaptop.eth[0].mac 	txPk:count 	12208
attr interpolationmode  none
attr source  txPk
attr title  "packets transmitted, count"
scalar ExamTaskNetwork.ProfessorsLaptop.eth[0].mac 	txPk:sum(packetBytes) 	17641712
attr interpolationmode  none
attr source  txPk
attr title  "packets transmitted, sum(packetBytes)"
scalar ExamTaskNetwork.ProfessorsLaptop.eth[0].mac 	droppedPkNotForUs:count 	0
attr interpolationmode  none
attr source  dropPkNotForUs
attr title  "packets dropped/not for us, count"
scalar ExamTaskNetwork.ProfessorsLaptop.eth[0].mac 	droppedPkNotForUs:sum(packetBytes) 	0
attr interpolationmode  none
attr source  dropPkNotForUs
attr title  "packets dropped/not for us, sum(packetBytes)"
scalar ExamTaskNetwork.ProfessorsLaptop.eth[0].mac 	passedUpPk:count 	12123
attr interpolationmode  none
attr source  packetSentToUpper
attr title  "packets passed to higher layer, count"
scalar ExamTaskNetwork.ProfessorsLaptop.eth[0].mac 	passedUpPk:sum(packetBytes) 	17518802
attr interpolationmode  none
attr source  packetSentToUpper
attr title  "packets passed to higher layer, sum(packetBytes)"
scalar ExamTaskNetwork.ProfessorsLaptop.eth[0].mac 	droppedPkBitError:count 	0
attr interpolationmode  none
attr source  dropPkBitError
attr title  "packets dropped/bit error, count"
scalar ExamTaskNetwork.ProfessorsLaptop.eth[0].mac 	droppedPkBitError:sum(packetBytes) 	0
attr interpolationmode  none
attr source  dropPkBitError
attr title  "packets dropped/bit error, sum(packetBytes)"
scalar ExamTaskNetwork.ProfessorsLaptop.eth[0].mac 	droppedPkIfaceDown:count 	0
attr interpolationmode  none
attr source  dropPkIfaceDown
attr title  "packets dropped/interface down, count"
scalar ExamTaskNetwork.ProfessorsLaptop.eth[0].mac 	droppedPkIfaceDown:sum(packetBytes) 	0
attr interpolationmode  none
attr source  dropPkIfaceDown
attr title  "packets dropped/interface down, sum(packetBytes)"
scalar ExamTaskNetwork.ProfessorsLaptop.eth[0].mac 	rxPkOk:count 	12123
attr interpolationmode  none
attr source  rxPkOk
attr title  "packets received OK, count"
scalar ExamTaskNetwork.ProfessorsLaptop.eth[0].mac 	rxPkOk:sum(packetBytes) 	17518802
attr interpolationmode  none
attr source  rxPkOk
attr title  "packets received OK, sum(packetBytes)"
scalar ExamTaskNetwork.ProfessorsLaptop.eth[0].encap 	pauseSent:count 	0
attr title  "pause sent, count"
scalar ExamTaskNetwork.ProfessorsLaptop.eth[0].encap 	pauseSent:sum 	0
attr title  "pause sent, sum"
scalar ExamTaskNetwork.ProfessorsLaptop.eth[0].encap 	decapPk:count 	12123
attr interpolationmode  none
attr source  decapPk
attr title  "packets decapsulated, count"
scalar ExamTaskNetwork.ProfessorsLaptop.eth[0].encap 	decapPk:sum(packetBytes) 	17300444
attr interpolationmode  none
attr source  decapPk
attr title  "packets decapsulated, sum(packetBytes)"
scalar ExamTaskNetwork.ProfessorsLaptop.eth[0].encap 	encapPk:count 	12208
attr interpolationmode  none
attr source  encapPk
attr title  "packets encapsulated, count"
scalar ExamTaskNetwork.ProfessorsLaptop.eth[0].encap 	encapPk:sum(packetBytes) 	17421824
attr interpolationmode  none
attr source  encapPk
attr title  "packets encapsulated, sum(packetBytes)"
scalar ExamTaskNetwork.ProfessorsLaptop.udpApp[0] 	"packets sent" 	12200
scalar ExamTaskNetwork.ProfessorsLaptop.udpApp[0] 	"packets received" 	12115
scalar ExamTaskNetwork.ProfessorsLaptop.udpApp[0] 	lateRatio 	0.00016508460976183
scalar ExamTaskNetwork.ProfessorsLaptop.udpApp[0] 	"discarded packets" 	2
statistic ExamTaskNetwork.ProfessorsLaptop.udpApp[0] 	endToEndDelay:stats
field count 12115
field mean 0.037575466432512
field stddev 0.014638751067219
field sum 455.22677582988
field sqrsum 19.701304233812
field min 0.016463258484
field max 0.127044862584
attr source  VoIPPacketDelay
attr title  "VoIP Packet End-to-End Delay, stats"
attr unit  s
scalar ExamTaskNetwork.ProfessorsLaptop.udpApp[0] 	sentPk:count 	12200
attr interpolationmode  none
attr source  sentPk
attr title  "packets sent, count"
scalar ExamTaskNetwork.ProfessorsLaptop.udpApp[0] 	sentPk:sum(packetBytes) 	17080000
attr interpolationmode  none
attr source  sentPk
attr title  "packets sent, sum(packetBytes)"
scalar ExamTaskNetwork.ProfessorsLaptop.udpApp[0] 	rcvdPk:count 	12115
attr interpolationmode  none
attr source  rcvdPk
attr title  "packets received, count"
scalar ExamTaskNetwork.ProfessorsLaptop.udpApp[0] 	rcvdPk:sum(packetBytes) 	16961000
attr interpolationmode  none
attr source  rcvdPk
attr title  "packets received, sum(packetBytes)"
statistic ExamTaskNetwork.ProfessorsLaptop.udpApp[0] 	rcvdPkLifetime:stats
field count 12115
field mean 0.037575466432512
field stddev 0.014638751067219
field sum 455.22677582988
field sqrsum 19.701304233812
field min 0.016463258484
field max 0.127044862584
attr interpolationmode  none
attr source  messageAge(rcvdPk)
attr title  "received packet lifetime, stats"
attr unit  s
scalar ExamTaskNetwork.ProfessorsLaptop.udp 	droppedPkBadChecksum:count 	0
attr interpolationmode  none
attr title  "packets dropped (checksum error), count"
scalar ExamTaskNetwork.ProfessorsLaptop.udp 	droppedPkWrongPort:count 	0
attr interpolationmode  none
attr title  "packets dropped (wrong port), count"
scalar ExamTaskNetwork.ProfessorsLaptop.udp 	passedUpPk:count 	12115
attr interpolationmode  none
attr title  "packets passed up, count"
scalar ExamTaskNetwork.ProfessorsLaptop.udp 	sentPk:count 	12200
attr interpolationmode  none
attr source  sentPk
attr title  "packets sent, count"
scalar ExamTaskNetwork.ProfessorsLaptop.udp 	sentPk:sum(packetBytes) 	17177600
attr interpolationmode  none
attr source  sentPk
attr title  "packets sent, sum(packetBytes)"
scalar ExamTaskNetwork.ProfessorsLaptop.udp 	rcvdPk:count 	12115
attr interpolationmode  none
attr source  rcvdPk
attr title  "packets received, count"
scalar ExamTaskNetwork.ProfessorsLaptop.udp 	rcvdPk:sum(packetBytes) 	17057920
attr interpolationmode  none
attr source  rcvdPk
attr title  "packets received, sum(packetBytes)"
scalar ExamTaskNetwork.CCTVMonitoring.networkLayer.arp 	initiatedARPResolution:count 	4
attr title  "ARP initiated resolutions, count"
scalar ExamTaskNetwork.CCTVMonitoring.networkLayer.arp 	sentReply:count 	4
attr title  "ARP replies sent, count"
scalar ExamTaskNetwork.CCTVMonitoring.networkLayer.arp 	sentReq:count 	4
attr title  "ARP request sent, count"
scalar ExamTaskNetwork.CCTVMonitoring.networkLayer.arp 	failedARPResolution:count 	0
attr title  "ARP failed resolutions, count"
scalar ExamTaskNetwork.CCTVMonitoring.networkLayer.arp 	completedARPResolution:count 	8
attr title  "ARP completed resolutions, count"
scalar ExamTaskNetwork.CCTVMonitoring.lo0.lo 	rcvdPkFromHL:count 	0
attr interpolationmode  none
attr source  packetReceivedFromUpper
attr title  "packets received from higher layer, count"
scalar ExamTaskNetwork.CCTVMonitoring.lo0.lo 	rcvdPkFromHL:sum(packetBytes) 	0
attr interpolationmode  none
attr source  packetReceivedFromUpper
attr title  "packets received from higher layer, sum(packetBytes)"
scalar ExamTaskNetwork.CCTVMonitoring.lo0.lo 	passedUpPk:count 	0
attr interpolationmode  none
attr source  packetSentToUpper
attr title  "packets passed to higher layer, count"
scalar ExamTaskNetwork.CCTVMonitoring.lo0.lo 	passedUpPk:sum(packetBytes) 	0
attr interpolationmode  none
attr source  packetSentToUpper
attr title  "packets passed to higher layer, sum(packetBytes)"
scalar ExamTaskNetwork.CCTVMonitoring.lo0.lo 	droppedPkBitError:count 	0
attr interpolationmode  none
attr source  dropPkBitError
attr title  "packets dropped/bit error, count"
scalar ExamTaskNetwork.CCTVMonitoring.lo0.lo 	droppedPkBitError:sum(packetBytes) 	0
attr interpolationmode  none
attr source  dropPkBitError
attr title  "packets dropped/bit error, sum(packetBytes)"
scalar ExamTaskNetwork.CCTVMonitoring.eth[0].mac 	"simulated time" 	500
scalar ExamTaskNetwork.CCTVMonitoring.eth[0].mac 	full-duplex 	1
scalar ExamTaskNetwork.CCTVMonitoring.eth[0].mac 	"frames/sec sent" 	0.138
scalar ExamTaskNetwork.CCTVMonitoring.eth[0].mac 	"frames/sec rcvd" 	169.58
scalar ExamTaskNetwork.CCTVMonitoring.eth[0].mac 	"bits/sec sent" 	80.416
scalar ExamTaskNetwork.CCTVMonitoring.eth[0].mac 	"bits/sec rcvd" 	2037592.64
scalar ExamTaskNetwork.CCTVMonitoring.eth[0].mac 	"rx channel idle (%)" 	97.95155424
scalar ExamTaskNetwork.CCTVMonitoring.eth[0].mac 	"rx channel utilization (%)" 	2.04844576
scalar ExamTaskNetwork.CCTVMonitoring.eth[0].mac 	rxPkFromHL:count 	69
attr interpolationmode  none
attr source  rxPkFromHL
attr title  "packet bytes from higher layer, count"
scalar ExamTaskNetwork.CCTVMonitoring.eth[0].mac 	rxPkFromHL:sum(packetBytes) 	5026
attr interpolationmode  none
attr source  rxPkFromHL
attr title  "packet bytes from higher layer, sum(packetBytes)"
scalar ExamTaskNetwork.CCTVMonitoring.eth[0].mac 	rxPausePkUnits:count 	0
attr interpolationmode  none
attr title  "pause units received, count"
scalar ExamTaskNetwork.CCTVMonitoring.eth[0].mac 	rxPausePkUnits:sum 	0
attr interpolationmode  none
attr title  "pause units received, sum"
scalar ExamTaskNetwork.CCTVMonitoring.eth[0].mac 	txPausePkUnits:count 	0
attr interpolationmode  none
attr title  "pause units sent, count"
scalar ExamTaskNetwork.CCTVMonitoring.eth[0].mac 	txPausePkUnits:sum 	0
attr interpolationmode  none
attr title  "pause units sent, sum"
scalar ExamTaskNetwork.CCTVMonitoring.eth[0].mac 	txPk:count 	69
attr interpolationmode  none
attr source  txPk
attr title  "packets transmitted, count"
scalar ExamTaskNetwork.CCTVMonitoring.eth[0].mac 	txPk:sum(packetBytes) 	5026
attr interpolationmode  none
attr source  txPk
attr title  "packets transmitted, sum(packetBytes)"
scalar ExamTaskNetwork.CCTVMonitoring.eth[0].mac 	droppedPkNotForUs:count 	0
attr interpolationmode  none
attr source  dropPkNotForUs
attr title  "packets dropped/not for us, count"
scalar ExamTaskNetwork.CCTVMonitoring.eth[0].mac 	droppedPkNotForUs:sum(packetBytes) 	0
attr interpolationmode  none
attr source  dropPkNotForUs
attr title  "packets dropped/not for us, sum(packetBytes)"
scalar ExamTaskNetwork.CCTVMonitoring.eth[0].mac 	passedUpPk:count 	84790
attr interpolationmode  none
attr source  packetSentToUpper
attr title  "packets passed to higher layer, count"
scalar ExamTaskNetwork.CCTVMonitoring.eth[0].mac 	passedUpPk:sum(packetBytes) 	127349540
attr interpolationmode  none
attr source  packetSentToUpper
attr title  "packets passed to higher layer, sum(packetBytes)"
scalar ExamTaskNetwork.CCTVMonitoring.eth[0].mac 	droppedPkBitError:count 	0
attr interpolationmode  none
attr source  dropPkBitError
attr title  "packets dropped/bit error, count"
scalar ExamTaskNetwork.CCTVMonitoring.eth[0].mac 	droppedPkBitError:sum(packetBytes) 	0
attr interpolationmode  none
attr source  dropPkBitError
attr title  "packets dropped/bit error, sum(packetBytes)"
scalar ExamTaskNetwork.CCTVMonitoring.eth[0].mac 	droppedPkIfaceDown:count 	0
attr interpolationmode  none
attr source  dropPkIfaceDown
attr title  "packets dropped/interface down, count"
scalar ExamTaskNetwork.CCTVMonitoring.eth[0].mac 	droppedPkIfaceDown:sum(packetBytes) 	0
attr interpolationmode  none
attr source  dropPkIfaceDown
attr title  "packets dropped/interface down, sum(packetBytes)"
scalar ExamTaskNetwork.CCTVMonitoring.eth[0].mac 	rxPkOk:count 	84790
attr interpolationmode  none
attr source  rxPkOk
attr title  "packets received OK, count"
scalar ExamTaskNetwork.CCTVMonitoring.eth[0].mac 	rxPkOk:sum(packetBytes) 	127349540
attr interpolationmode  none
attr source  rxPkOk
attr title  "packets received OK, sum(packetBytes)"
scalar ExamTaskNetwork.CCTVMonitoring.eth[0].encap 	pauseSent:count 	0
attr title  "pause sent, count"
scalar ExamTaskNetwork.CCTVMonitoring.eth[0].encap 	pauseSent:sum 	0
attr title  "pause sent, sum"
scalar ExamTaskNetwork.CCTVMonitoring.eth[0].encap 	decapPk:count 	84790
attr interpolationmode  none
attr source  decapPk
attr title  "packets decapsulated, count"
scalar ExamTaskNetwork.CCTVMonitoring.eth[0].encap 	decapPk:sum(packetBytes) 	125823176
attr interpolationmode  none
attr source  decapPk
attr title  "packets decapsulated, sum(packetBytes)"
scalar ExamTaskNetwork.CCTVMonitoring.eth[0].encap 	encapPk:count 	69
attr interpolationmode  none
attr source  encapPk
attr title  "packets encapsulated, count"
scalar ExamTaskNetwork.CCTVMonitoring.eth[0].encap 	encapPk:sum(packetBytes) 	3640
attr interpolationmode  none
attr source  encapPk
attr title  "packets encapsulated, sum(packetBytes)"
scalar ExamTaskNetwork.CCTVMonitoring.udpApp[0] 	"packets sent" 	0
scalar ExamTaskNetwork.CCTVMonitoring.udpApp[0] 	"packets received" 	12052
scalar ExamTaskNetwork.CCTVMonitoring.udpApp[0] 	lateRatio 	0
scalar ExamTaskNetwork.CCTVMonitoring.udpApp[0] 	"discarded packets" 	0
statistic ExamTaskNetwork.CCTVMonitoring.udpApp[0] 	endToEndDelay:stats
field count 12052
field mean 0.03236625454622
field stddev 0.01438113808999
field sum 390.07809979105
field sqrsum 15.117720337674
field min 0.017193199996
field max 0.062185129653
attr source  VoIPPacketDelay
attr title  "VoIP Packet End-to-End Delay, stats"
attr unit  s
scalar ExamTaskNetwork.CCTVMonitoring.udpApp[0] 	sentPk:count 	0
attr interpolationmode  none
attr source  sentPk
attr title  "packets sent, count"
scalar ExamTaskNetwork.CCTVMonitoring.udpApp[0] 	sentPk:sum(packetBytes) 	0
attr interpolationmode  none
attr source  sentPk
attr title  "packets sent, sum(packetBytes)"
scalar ExamTaskNetwork.CCTVMonitoring.udpApp[0] 	rcvdPk:count 	12052
attr interpolationmode  none
attr source  rcvdPk
attr title  "packets received, count"
scalar ExamTaskNetwork.CCTVMonitoring.udpApp[0] 	rcvdPk:sum(packetBytes) 	123412480
attr interpolationmode  none
attr source  rcvdPk
attr title  "packets received, sum(packetBytes)"
statistic ExamTaskNetwork.CCTVMonitoring.udpApp[0] 	rcvdPkLifetime:stats
field count 12052
field mean 0.03236625454622
field stddev 0.01438113808999
field sum 390.07809979105
field sqrsum 15.117720337674
field min 0.017193199996
field max 0.062185129653
attr interpolationmode  none
attr source  messageAge(rcvdPk)
attr title  "received packet lifetime, stats"
attr unit  s
scalar ExamTaskNetwork.CCTVMonitoring.udp 	droppedPkBadChecksum:count 	0
attr interpolationmode  none
attr title  "packets dropped (checksum error), count"
scalar ExamTaskNetwork.CCTVMonitoring.udp 	droppedPkWrongPort:count 	0
attr interpolationmode  none
attr title  "packets dropped (wrong port), count"
scalar ExamTaskNetwork.CCTVMonitoring.udp 	passedUpPk:count 	12052
attr interpolationmode  none
attr title  "packets passed up, count"
scalar ExamTaskNetwork.CCTVMonitoring.udp 	sentPk:count 	0
attr interpolationmode  none
attr source  sentPk
attr title  "packets sent, count"
scalar ExamTaskNetwork.CCTVMonitoring.udp 	sentPk:sum(packetBytes) 	0
attr interpolationmode  none
attr source  sentPk
attr title  "packets sent, sum(packetBytes)"
scalar ExamTaskNetwork.CCTVMonitoring.udp 	rcvdPk:count 	12052
attr interpolationmode  none
attr source  rcvdPk
attr title  "packets received, count"
scalar ExamTaskNetwork.CCTVMonitoring.udp 	rcvdPk:sum(packetBytes) 	123508896
attr interpolationmode  none
attr source  rcvdPk
attr title  "packets received, sum(packetBytes)"
scalar ExamTaskNetwork.RemoteAccessPoint.relayUnit 	"number of received BPDUs from STP module" 	0
scalar ExamTaskNetwork.RemoteAccessPoint.relayUnit 	"number of received frames from network (including BPDUs)" 	774914
scalar ExamTaskNetwork.RemoteAccessPoint.relayUnit 	"number of dropped frames (including BPDUs)" 	0
scalar ExamTaskNetwork.RemoteAccessPoint.relayUnit 	"number of delivered BPDUs to the STP module" 	0
scalar ExamTaskNetwork.RemoteAccessPoint.relayUnit 	"number of dispatched BPDU frames to the network" 	0
scalar ExamTaskNetwork.RemoteAccessPoint.relayUnit 	"number of dispatched non-BDPU frames to the network" 	774914
scalar ExamTaskNetwork.RemoteAccessPoint.wlan[0].mgmt 	dropPkByQueue:count 	2268
attr interpolationmode  none
attr source  dropPkByQueue
attr title  "packets dropped by queue, count"
scalar ExamTaskNetwork.RemoteAccessPoint.wlan[0].mgmt 	dropPkByQueue:sum(packetBytes) 	661818
attr interpolationmode  none
attr source  dropPkByQueue
attr title  "packets dropped by queue, sum(packetBytes)"
scalar ExamTaskNetwork.RemoteAccessPoint.wlan[0].mgmt 	dataQueueLen:max 	50
attr interpolationmode  sample-hold
attr title  "data queue length, max"
scalar ExamTaskNetwork.RemoteAccessPoint.wlan[0].mgmt 	dataQueueLen:timeavg 	1.5724963740927
attr interpolationmode  sample-hold
attr title  "data queue length, timeavg"
scalar ExamTaskNetwork.RemoteAccessPoint.wlan[0].mac 	"number of received packets" 	381895
scalar ExamTaskNetwork.RemoteAccessPoint.wlan[0].mac 	"number of collisions" 	1516
scalar ExamTaskNetwork.RemoteAccessPoint.wlan[0].mac 	"number of internal collisions" 	0
scalar ExamTaskNetwork.RemoteAccessPoint.wlan[0].mac 	"number of retry for AC 0" 	30709
scalar ExamTaskNetwork.RemoteAccessPoint.wlan[0].mac 	"sent and received bits" 	511163240
scalar ExamTaskNetwork.RemoteAccessPoint.wlan[0].mac 	"sent packet within AC 0" 	390819
scalar ExamTaskNetwork.RemoteAccessPoint.wlan[0].mac 	"sent in TXOP " 	0
scalar ExamTaskNetwork.RemoteAccessPoint.wlan[0].mac 	"sentWithoutRetry AC 0" 	360259
scalar ExamTaskNetwork.RemoteAccessPoint.wlan[0].mac 	"numGivenUp AC 0" 	0
scalar ExamTaskNetwork.RemoteAccessPoint.wlan[0].mac 	"numDropped AC 0" 	0
scalar ExamTaskNetwork.RemoteAccessPoint.wlan[0].mac 	rcvdPkFromHL:count 	395844
attr interpolationmode  none
attr source  packetReceivedFromUpper
attr title  "packets received from higher layer, count"
scalar ExamTaskNetwork.RemoteAccessPoint.wlan[0].mac 	rcvdPkFromHL:sum(packetBytes) 	63895487
attr interpolationmode  none
attr source  packetReceivedFromUpper
attr title  "packets received from higher layer, sum(packetBytes)"
scalar ExamTaskNetwork.RemoteAccessPoint.wlan[0].mac 	passedUpPk:count 	381901
attr interpolationmode  none
attr source  packetSentToUpper
attr title  "packets passed to higher layer, count"
scalar ExamTaskNetwork.RemoteAccessPoint.wlan[0].mac 	passedUpPk:sum(packetBytes) 	576376117
attr interpolationmode  none
attr source  packetSentToUpper
attr title  "packets passed to higher layer, sum(packetBytes)"
scalar ExamTaskNetwork.RemoteAccessPoint.wlan[0].mac 	rcvdPkFromLL:count 	774236
attr interpolationmode  none
attr source  packetReceivedFromLower
attr title  "packets received from lower layer, count"
scalar ExamTaskNetwork.RemoteAccessPoint.wlan[0].mac 	rcvdPkFromLL:sum(packetBytes) 	584181293
attr interpolationmode  none
attr source  packetReceivedFromLower
attr title  "packets received from lower layer, sum(packetBytes)"
scalar ExamTaskNetwork.RemoteAccessPoint.wlan[0].mac 	sentDownPk:count 	808447
attr interpolationmode  none
attr source  packetSentToLower
attr title  "packets sent to lower layer, count"
scalar ExamTaskNetwork.RemoteAccessPoint.wlan[0].mac 	sentDownPk:sum(packetBytes) 	73923690
attr interpolationmode  none
attr source  packetSentToLower
attr title  "packets sent to lower layer, sum(packetBytes)"
scalar ExamTaskNetwork.RemoteAccessPoint.wlan[0].radio 	lossRate:min 	0
attr interpolationmode  backward-sample-hold
attr title  "packet loss rate, min"
scalar ExamTaskNetwork.RemoteAccessPoint.wlan[0].radio 	lossRate:max 	0.08
attr interpolationmode  backward-sample-hold
attr title  "packet loss rate, max"
scalar ExamTaskNetwork.RemoteAccessPoint.wlan[0].radio 	lossRate:timeavg 	0.0020470792273217
attr interpolationmode  backward-sample-hold
attr title  "packet loss rate, timeavg"
statistic ExamTaskNetwork.RemoteAccessPoint.wlan[0].radio 	channelNo:histogram
field count 1
field mean 0
field stddev -nan
field sum 0
field sqrsum 0
field min 0
field max 0
attr interpolationmode  sample-hold
attr title  "channel no, histogram"
bin	-INF	0
bin	-0.5	0
bin	-0.46666666666667	0
bin	-0.43333333333333	0
bin	-0.4	0
bin	-0.36666666666667	0
bin	-0.33333333333333	0
bin	-0.3	0
bin	-0.26666666666667	0
bin	-0.23333333333333	0
bin	-0.2	0
bin	-0.16666666666667	0
bin	-0.13333333333333	0
bin	-0.1	0
bin	-0.066666666666667	0
bin	-0.033333333333333	0
bin	0	1
bin	0.033333333333333	0
bin	0.066666666666667	0
bin	0.1	0
bin	0.13333333333333	0
bin	0.16666666666667	0
bin	0.2	0
bin	0.23333333333333	0
bin	0.26666666666667	0
bin	0.3	0
bin	0.33333333333333	0
bin	0.36666666666667	0
bin	0.4	0
bin	0.43333333333333	0
bin	0.46666666666667	0
bin	0.5	0
scalar ExamTaskNetwork.RemoteAccessPoint.wlan[0].radio 	radioState:count 	3209474
attr interpolationmode  sample-hold
attr title  "radio state (enum), count"
scalar ExamTaskNetwork.RemoteAccessPoint.wlan[0].radio 	bitrate:min 	54000000
attr interpolationmode  sample-hold
attr title  "tx bitrate, min"
attr unit  bps
scalar ExamTaskNetwork.RemoteAccessPoint.wlan[0].radio 	bitrate:max 	54000000
attr interpolationmode  sample-hold
attr title  "tx bitrate, max"
attr unit  bps
scalar ExamTaskNetwork.RemoteAccessPoint.wlan[0].radio 	bitrate:timeavg 	54000000
attr interpolationmode  sample-hold
attr title  "tx bitrate, timeavg"
attr unit  bps
scalar ExamTaskNetwork.RemoteAccessPoint.eth[0].mac 	"simulated time" 	500
scalar ExamTaskNetwork.RemoteAccessPoint.eth[0].mac 	full-duplex 	1
scalar ExamTaskNetwork.RemoteAccessPoint.eth[0].mac 	"frames/sec sent" 	763.716
scalar ExamTaskNetwork.RemoteAccessPoint.eth[0].mac 	"frames/sec rcvd" 	786.11
scalar ExamTaskNetwork.RemoteAccessPoint.eth[0].mac 	"bits/sec sent" 	8968948.304
scalar ExamTaskNetwork.RemoteAccessPoint.eth[0].mac 	"bits/sec rcvd" 	913569.68
scalar ExamTaskNetwork.RemoteAccessPoint.eth[0].mac 	"rx channel idle (%)" 	99.03611928
scalar ExamTaskNetwork.RemoteAccessPoint.eth[0].mac 	"rx channel utilization (%)" 	0.9638807199998
scalar ExamTaskNetwork.RemoteAccessPoint.eth[0].mac 	rxPkFromHL:count 	381859
attr interpolationmode  none
attr source  rxPkFromHL
attr title  "packet bytes from higher layer, count"
scalar ExamTaskNetwork.RemoteAccessPoint.eth[0].mac 	rxPkFromHL:sum(packetBytes) 	560560775
attr interpolationmode  none
attr source  rxPkFromHL
attr title  "packet bytes from higher layer, sum(packetBytes)"
scalar ExamTaskNetwork.RemoteAccessPoint.eth[0].mac 	rxPausePkUnits:count 	0
attr interpolationmode  none
attr title  "pause units received, count"
scalar ExamTaskNetwork.RemoteAccessPoint.eth[0].mac 	rxPausePkUnits:sum 	0
attr interpolationmode  none
attr title  "pause units received, sum"
scalar ExamTaskNetwork.RemoteAccessPoint.eth[0].mac 	txPausePkUnits:count 	0
attr interpolationmode  none
attr title  "pause units sent, count"
scalar ExamTaskNetwork.RemoteAccessPoint.eth[0].mac 	txPausePkUnits:sum 	0
attr interpolationmode  none
attr title  "pause units sent, sum"
scalar ExamTaskNetwork.RemoteAccessPoint.eth[0].mac 	txPk:count 	381858
attr interpolationmode  none
attr source  txPk
attr title  "packets transmitted, count"
scalar ExamTaskNetwork.RemoteAccessPoint.eth[0].mac 	txPk:sum(packetBytes) 	560559269
attr interpolationmode  none
attr source  txPk
attr title  "packets transmitted, sum(packetBytes)"
scalar ExamTaskNetwork.RemoteAccessPoint.eth[0].mac 	droppedPkNotForUs:count 	0
attr interpolationmode  none
attr source  dropPkNotForUs
attr title  "packets dropped/not for us, count"
scalar ExamTaskNetwork.RemoteAccessPoint.eth[0].mac 	droppedPkNotForUs:sum(packetBytes) 	0
attr interpolationmode  none
attr source  dropPkNotForUs
attr title  "packets dropped/not for us, sum(packetBytes)"
scalar ExamTaskNetwork.RemoteAccessPoint.eth[0].mac 	passedUpPk:count 	393055
attr interpolationmode  none
attr source  packetSentToUpper
attr title  "packets passed to higher layer, count"
scalar ExamTaskNetwork.RemoteAccessPoint.eth[0].mac 	passedUpPk:sum(packetBytes) 	57098105
attr interpolationmode  none
attr source  packetSentToUpper
attr title  "packets passed to higher layer, sum(packetBytes)"
scalar ExamTaskNetwork.RemoteAccessPoint.eth[0].mac 	droppedPkBitError:count 	0
attr interpolationmode  none
attr source  dropPkBitError
attr title  "packets dropped/bit error, count"
scalar ExamTaskNetwork.RemoteAccessPoint.eth[0].mac 	droppedPkBitError:sum(packetBytes) 	0
attr interpolationmode  none
attr source  dropPkBitError
attr title  "packets dropped/bit error, sum(packetBytes)"
scalar ExamTaskNetwork.RemoteAccessPoint.eth[0].mac 	droppedPkIfaceDown:count 	0
attr interpolationmode  none
attr source  dropPkIfaceDown
attr title  "packets dropped/interface down, count"
scalar ExamTaskNetwork.RemoteAccessPoint.eth[0].mac 	droppedPkIfaceDown:sum(packetBytes) 	0
attr interpolationmode  none
attr source  dropPkIfaceDown
attr title  "packets dropped/interface down, sum(packetBytes)"
scalar ExamTaskNetwork.RemoteAccessPoint.eth[0].mac 	rxPkOk:count 	393055
attr interpolationmode  none
attr source  rxPkOk
attr title  "packets received OK, count"
scalar ExamTaskNetwork.RemoteAccessPoint.eth[0].mac 	rxPkOk:sum(packetBytes) 	57098105
attr interpolationmode  none
attr source  rxPkOk
attr title  "packets received OK, sum(packetBytes)"
scalar ExamTaskNetwork.RemoteRouter.networkLayer.arp 	initiatedARPResolution:count 	9
attr title  "ARP initiated resolutions, count"
scalar ExamTaskNetwork.RemoteRouter.networkLayer.arp 	sentReply:count 	20
attr title  "ARP replies sent, count"
scalar ExamTaskNetwork.RemoteRouter.networkLayer.arp 	sentReq:count 	9
attr title  "ARP request sent, count"
scalar ExamTaskNetwork.RemoteRouter.networkLayer.arp 	failedARPResolution:count 	0
attr title  "ARP failed resolutions, count"
scalar ExamTaskNetwork.RemoteRouter.networkLayer.arp 	completedARPResolution:count 	28
attr title  "ARP completed resolutions, count"
scalar ExamTaskNetwork.RemoteRouter.lo0.lo 	rcvdPkFromHL:count 	0
attr interpolationmode  none
attr source  packetReceivedFromUpper
attr title  "packets received from higher layer, count"
scalar ExamTaskNetwork.RemoteRouter.lo0.lo 	rcvdPkFromHL:sum(packetBytes) 	0
attr interpolationmode  none
attr source  packetReceivedFromUpper
attr title  "packets received from higher layer, sum(packetBytes)"
scalar ExamTaskNetwork.RemoteRouter.lo0.lo 	passedUpPk:count 	0
attr interpolationmode  none
attr source  packetSentToUpper
attr title  "packets passed to higher layer, count"
scalar ExamTaskNetwork.RemoteRouter.lo0.lo 	passedUpPk:sum(packetBytes) 	0
attr interpolationmode  none
attr source  packetSentToUpper
attr title  "packets passed to higher layer, sum(packetBytes)"
scalar ExamTaskNetwork.RemoteRouter.lo0.lo 	droppedPkBitError:count 	0
attr interpolationmode  none
attr source  dropPkBitError
attr title  "packets dropped/bit error, count"
scalar ExamTaskNetwork.RemoteRouter.lo0.lo 	droppedPkBitError:sum(packetBytes) 	0
attr interpolationmode  none
attr source  dropPkBitError
attr title  "packets dropped/bit error, sum(packetBytes)"
scalar ExamTaskNetwork.RemoteRouter.eth[0].mac 	"simulated time" 	500
scalar ExamTaskNetwork.RemoteRouter.eth[0].mac 	full-duplex 	1
scalar ExamTaskNetwork.RemoteRouter.eth[0].mac 	"frames/sec sent" 	786.11
scalar ExamTaskNetwork.RemoteRouter.eth[0].mac 	"frames/sec rcvd" 	763.716
scalar ExamTaskNetwork.RemoteRouter.eth[0].mac 	"bits/sec sent" 	913569.68
scalar ExamTaskNetwork.RemoteRouter.eth[0].mac 	"bits/sec rcvd" 	8968948.304
scalar ExamTaskNetwork.RemoteRouter.eth[0].mac 	"rx channel idle (%)" 	90.982173872001
scalar ExamTaskNetwork.RemoteRouter.eth[0].mac 	"rx channel utilization (%)" 	9.0178261279994
scalar ExamTaskNetwork.RemoteRouter.eth[0].mac 	rxPkFromHL:count 	393055
attr interpolationmode  none
attr source  rxPkFromHL
attr title  "packet bytes from higher layer, count"
scalar ExamTaskNetwork.RemoteRouter.eth[0].mac 	rxPkFromHL:sum(packetBytes) 	57098105
attr interpolationmode  none
attr source  rxPkFromHL
attr title  "packet bytes from higher layer, sum(packetBytes)"
scalar ExamTaskNetwork.RemoteRouter.eth[0].mac 	rxPausePkUnits:count 	0
attr interpolationmode  none
attr title  "pause units received, count"
scalar ExamTaskNetwork.RemoteRouter.eth[0].mac 	rxPausePkUnits:sum 	0
attr interpolationmode  none
attr title  "pause units received, sum"
scalar ExamTaskNetwork.RemoteRouter.eth[0].mac 	txPausePkUnits:count 	0
attr interpolationmode  none
attr title  "pause units sent, count"
scalar ExamTaskNetwork.RemoteRouter.eth[0].mac 	txPausePkUnits:sum 	0
attr interpolationmode  none
attr title  "pause units sent, sum"
scalar ExamTaskNetwork.RemoteRouter.eth[0].mac 	txPk:count 	393055
attr interpolationmode  none
attr source  txPk
attr title  "packets transmitted, count"
scalar ExamTaskNetwork.RemoteRouter.eth[0].mac 	txPk:sum(packetBytes) 	57098105
attr interpolationmode  none
attr source  txPk
attr title  "packets transmitted, sum(packetBytes)"
scalar ExamTaskNetwork.RemoteRouter.eth[0].mac 	droppedPkNotForUs:count 	0
attr interpolationmode  none
attr source  dropPkNotForUs
attr title  "packets dropped/not for us, count"
scalar ExamTaskNetwork.RemoteRouter.eth[0].mac 	droppedPkNotForUs:sum(packetBytes) 	0
attr interpolationmode  none
attr source  dropPkNotForUs
attr title  "packets dropped/not for us, sum(packetBytes)"
scalar ExamTaskNetwork.RemoteRouter.eth[0].mac 	passedUpPk:count 	381858
attr interpolationmode  none
attr source  packetSentToUpper
attr title  "packets passed to higher layer, count"
scalar ExamTaskNetwork.RemoteRouter.eth[0].mac 	passedUpPk:sum(packetBytes) 	560559269
attr interpolationmode  none
attr source  packetSentToUpper
attr title  "packets passed to higher layer, sum(packetBytes)"
scalar ExamTaskNetwork.RemoteRouter.eth[0].mac 	droppedPkBitError:count 	0
attr interpolationmode  none
attr source  dropPkBitError
attr title  "packets dropped/bit error, count"
scalar ExamTaskNetwork.RemoteRouter.eth[0].mac 	droppedPkBitError:sum(packetBytes) 	0
attr interpolationmode  none
attr source  dropPkBitError
attr title  "packets dropped/bit error, sum(packetBytes)"
scalar ExamTaskNetwork.RemoteRouter.eth[0].mac 	droppedPkIfaceDown:count 	0
attr interpolationmode  none
attr source  dropPkIfaceDown
attr title  "packets dropped/interface down, count"
scalar ExamTaskNetwork.RemoteRouter.eth[0].mac 	droppedPkIfaceDown:sum(packetBytes) 	0
attr interpolationmode  none
attr source  dropPkIfaceDown
attr title  "packets dropped/interface down, sum(packetBytes)"
scalar ExamTaskNetwork.RemoteRouter.eth[0].mac 	rxPkOk:count 	381858
attr interpolationmode  none
attr source  rxPkOk
attr title  "packets received OK, count"
scalar ExamTaskNetwork.RemoteRouter.eth[0].mac 	rxPkOk:sum(packetBytes) 	560559269
attr interpolationmode  none
attr source  rxPkOk
attr title  "packets received OK, sum(packetBytes)"
scalar ExamTaskNetwork.RemoteRouter.eth[0].encap 	pauseSent:count 	0
attr title  "pause sent, count"
scalar ExamTaskNetwork.RemoteRouter.eth[0].encap 	pauseSent:sum 	0
attr title  "pause sent, sum"
scalar ExamTaskNetwork.RemoteRouter.eth[0].encap 	decapPk:count 	381858
attr interpolationmode  none
attr source  decapPk
attr title  "packets decapsulated, count"
scalar ExamTaskNetwork.RemoteRouter.eth[0].encap 	decapPk:sum(packetBytes) 	560334949
attr interpolationmode  none
attr source  decapPk
attr title  "packets decapsulated, sum(packetBytes)"
scalar ExamTaskNetwork.RemoteRouter.eth[0].encap 	encapPk:count 	393055
attr interpolationmode  none
attr source  encapPk
attr title  "packets encapsulated, count"
scalar ExamTaskNetwork.RemoteRouter.eth[0].encap 	encapPk:sum(packetBytes) 	47656013
attr interpolationmode  none
attr source  encapPk
attr title  "packets encapsulated, sum(packetBytes)"
scalar ExamTaskNetwork.RemoteRouter.eth[1].mac 	"simulated time" 	500
scalar ExamTaskNetwork.RemoteRouter.eth[1].mac 	full-duplex 	1
scalar ExamTaskNetwork.RemoteRouter.eth[1].mac 	"frames/sec sent" 	0.132
scalar ExamTaskNetwork.RemoteRouter.eth[1].mac 	"frames/sec rcvd" 	169.76
scalar ExamTaskNetwork.RemoteRouter.eth[1].mac 	"bits/sec sent" 	77.344
scalar ExamTaskNetwork.RemoteRouter.eth[1].mac 	"bits/sec rcvd" 	2039721.12
scalar ExamTaskNetwork.RemoteRouter.eth[1].mac 	"rx channel idle (%)" 	97.94941424
scalar ExamTaskNetwork.RemoteRouter.eth[1].mac 	"rx channel utilization (%)" 	2.05058576
scalar ExamTaskNetwork.RemoteRouter.eth[1].mac 	rxPkFromHL:count 	66
attr interpolationmode  none
attr source  rxPkFromHL
attr title  "packet bytes from higher layer, count"
scalar ExamTaskNetwork.RemoteRouter.eth[1].mac 	rxPkFromHL:sum(packetBytes) 	4834
attr interpolationmode  none
attr source  rxPkFromHL
attr title  "packet bytes from higher layer, sum(packetBytes)"
scalar ExamTaskNetwork.RemoteRouter.eth[1].mac 	rxPausePkUnits:count 	0
attr interpolationmode  none
attr title  "pause units received, count"
scalar ExamTaskNetwork.RemoteRouter.eth[1].mac 	rxPausePkUnits:sum 	0
attr interpolationmode  none
attr title  "pause units received, sum"
scalar ExamTaskNetwork.RemoteRouter.eth[1].mac 	txPausePkUnits:count 	0
attr interpolationmode  none
attr title  "pause units sent, count"
scalar ExamTaskNetwork.RemoteRouter.eth[1].mac 	txPausePkUnits:sum 	0
attr interpolationmode  none
attr title  "pause units sent, sum"
scalar ExamTaskNetwork.RemoteRouter.eth[1].mac 	txPk:count 	66
attr interpolationmode  none
attr source  txPk
attr title  "packets transmitted, count"
scalar ExamTaskNetwork.RemoteRouter.eth[1].mac 	txPk:sum(packetBytes) 	4834
attr interpolationmode  none
attr source  txPk
attr title  "packets transmitted, sum(packetBytes)"
scalar ExamTaskNetwork.RemoteRouter.eth[1].mac 	droppedPkNotForUs:count 	0
attr interpolationmode  none
attr source  dropPkNotForUs
attr title  "packets dropped/not for us, count"
scalar ExamTaskNetwork.RemoteRouter.eth[1].mac 	droppedPkNotForUs:sum(packetBytes) 	0
attr interpolationmode  none
attr source  dropPkNotForUs
attr title  "packets dropped/not for us, sum(packetBytes)"
scalar ExamTaskNetwork.RemoteRouter.eth[1].mac 	passedUpPk:count 	84880
attr interpolationmode  none
attr source  packetSentToUpper
attr title  "packets passed to higher layer, count"
scalar ExamTaskNetwork.RemoteRouter.eth[1].mac 	passedUpPk:sum(packetBytes) 	127482570
attr interpolationmode  none
attr source  packetSentToUpper
attr title  "packets passed to higher layer, sum(packetBytes)"
scalar ExamTaskNetwork.RemoteRouter.eth[1].mac 	droppedPkBitError:count 	0
attr interpolationmode  none
attr source  dropPkBitError
attr title  "packets dropped/bit error, count"
scalar ExamTaskNetwork.RemoteRouter.eth[1].mac 	droppedPkBitError:sum(packetBytes) 	0
attr interpolationmode  none
attr source  dropPkBitError
attr title  "packets dropped/bit error, sum(packetBytes)"
scalar ExamTaskNetwork.RemoteRouter.eth[1].mac 	droppedPkIfaceDown:count 	0
attr interpolationmode  none
attr source  dropPkIfaceDown
attr title  "packets dropped/interface down, count"
scalar ExamTaskNetwork.RemoteRouter.eth[1].mac 	droppedPkIfaceDown:sum(packetBytes) 	0
attr interpolationmode  none
attr source  dropPkIfaceDown
attr title  "packets dropped/interface down, sum(packetBytes)"
scalar ExamTaskNetwork.RemoteRouter.eth[1].mac 	rxPkOk:count 	84880
attr interpolationmode  none
attr source  rxPkOk
attr title  "packets received OK, count"
scalar ExamTaskNetwork.RemoteRouter.eth[1].mac 	rxPkOk:sum(packetBytes) 	127482570
attr interpolationmode  none
attr source  rxPkOk
attr title  "packets received OK, sum(packetBytes)"
scalar ExamTaskNetwork.RemoteRouter.eth[1].encap 	pauseSent:count 	0
attr title  "pause sent, count"
scalar ExamTaskNetwork.RemoteRouter.eth[1].encap 	pauseSent:sum 	0
attr title  "pause sent, sum"
scalar ExamTaskNetwork.RemoteRouter.eth[1].encap 	decapPk:count 	84880
attr interpolationmode  none
attr source  decapPk
attr title  "packets decapsulated, count"
scalar ExamTaskNetwork.RemoteRouter.eth[1].encap 	decapPk:sum(packetBytes) 	125954640
attr interpolationmode  none
attr source  decapPk
attr title  "packets decapsulated, sum(packetBytes)"
scalar ExamTaskNetwork.RemoteRouter.eth[1].encap 	encapPk:count 	66
attr interpolationmode  none
attr source  encapPk
attr title  "packets encapsulated, count"
scalar ExamTaskNetwork.RemoteRouter.eth[1].encap 	encapPk:sum(packetBytes) 	3556
attr interpolationmode  none
attr source  encapPk
attr title  "packets encapsulated, sum(packetBytes)"
statistic ExamTaskNetwork.RemoteRouter.ppp[0].queue 	queueingTime:histogram
field count 466422
field mean 0.017625750821369
field stddev 0.015232253690427
field sum 8221.0379496047
field sqrsum 253.12169092647
field min 0
field max 0.050321993111
attr interpolationmode  none
attr title  "queueing time, histogram"
bin	-INF	0
bin	-0.002228509458	0
bin	-0.0019313748636	0
bin	-0.0016342402692	0
bin	-0.0013371056748	0
bin	-0.0010399710804	0
bin	-0.000742836486	0
bin	-0.0004457018916	0
bin	-0.0001485672972	53527
bin	0.0001485672972	14387
bin	0.0004457018916	5153
bin	0.000742836486	8303
bin	0.0010399710804	5282
bin	0.0013371056748	4320
bin	0.0016342402692	4790
bin	0.0019313748636	4190
bin	0.002228509458	4096
bin	0.0025256440524	4619
bin	0.0028227786468	4016
bin	0.0031199132412	3936
bin	0.0034170478356	5225
bin	0.00371418243	4079
bin	0.0040113170244	3868
bin	0.0043084516188	5455
bin	0.0046055862132	3813
bin	0.0049027208076	4093
bin	0.005199855402	5729
bin	0.0054969899964	4019
bin	0.0057941245908	4459
bin	0.0060912591852	5373
bin	0.0063883937796	5064
bin	0.006685528374	298626
scalar ExamTaskNetwork.RemoteRouter.ppp[0].queue 	dropPk:count 	245
attr interpolationmode  none
attr source  dropPkByQueue
attr title  "dropped packets, count"
scalar ExamTaskNetwork.RemoteRouter.ppp[0].queue 	dropPk:sum(packetBytes) 	356558
attr interpolationmode  none
attr source  dropPkByQueue
attr title  "dropped packets, sum(packetBytes)"
scalar ExamTaskNetwork.RemoteRouter.ppp[0].queue 	queueLength:max 	50
attr interpolationmode  sample-hold
attr title  "queue length, max"
scalar ExamTaskNetwork.RemoteRouter.ppp[0].queue 	queueLength:timeavg 	16.44414694182
attr interpolationmode  sample-hold
attr title  "queue length, timeavg"
scalar ExamTaskNetwork.RemoteRouter.ppp[0].queue 	rcvdPk:count 	466710
attr interpolationmode  none
attr title  "received packets, count"
scalar ExamTaskNetwork.RemoteRouter.ppp[0].queue 	rcvdPk:sum(packetBytes) 	686288805
attr interpolationmode  none
attr title  "received packets, sum(packetBytes)"
scalar ExamTaskNetwork.RemoteRouter.ppp[0].ppp 	rcvdPkFromHL:count 	466422
attr interpolationmode  none
attr source  packetReceivedFromUpper
attr title  "packets received from higher layer, count"
scalar ExamTaskNetwork.RemoteRouter.ppp[0].ppp 	rcvdPkFromHL:sum(packetBytes) 	685867643
attr interpolationmode  none
attr source  packetReceivedFromUpper
attr title  "packets received from higher layer, sum(packetBytes)"
scalar ExamTaskNetwork.RemoteRouter.ppp[0].ppp 	passedUpPk:count 	393092
attr interpolationmode  none
attr source  packetSentToUpper
attr title  "packets passed to higher layer, count"
scalar ExamTaskNetwork.RemoteRouter.ppp[0].ppp 	passedUpPk:sum(packetBytes) 	47658757
attr interpolationmode  none
attr source  packetSentToUpper
attr title  "packets passed to higher layer, sum(packetBytes)"
scalar ExamTaskNetwork.RemoteRouter.ppp[0].ppp 	txPk:count 	466422
attr interpolationmode  none
[...]
attr title  "packets received OK, sum(packetBytes)"
scalar ExamTaskNetwork.MainRouter.eth[1].encap 	pauseSent:count 	0
attr title  "pause sent, count"
scalar ExamTaskNetwork.MainRouter.eth[1].encap 	pauseSent:sum 	0
attr title  "pause sent, sum"
scalar ExamTaskNetwork.MainRouter.eth[1].encap 	decapPk:count 	12208
attr interpolationmode  none
attr source  decapPk
attr title  "packets decapsulated, count"
scalar ExamTaskNetwork.MainRouter.eth[1].encap 	decapPk:sum(packetBytes) 	17421824
attr interpolationmode  none
attr source  decapPk
attr title  "packets decapsulated, sum(packetBytes)"
scalar ExamTaskNetwork.MainRouter.eth[1].encap 	encapPk:count 	12123
attr interpolationmode  none
attr source  encapPk
attr title  "packets encapsulated, count"
scalar ExamTaskNetwork.MainRouter.eth[1].encap 	encapPk:sum(packetBytes) 	17300444
attr interpolationmode  none
attr source  encapPk
attr title  "packets encapsulated, sum(packetBytes)"
scalar ExamTaskNetwork.MainRouter.eth[2].mac 	"simulated time" 	500
scalar ExamTaskNetwork.MainRouter.eth[2].mac 	full-duplex 	1
scalar ExamTaskNetwork.MainRouter.eth[2].mac 	"frames/sec sent" 	169.58
scalar ExamTaskNetwork.MainRouter.eth[2].mac 	"frames/sec rcvd" 	0.138
scalar ExamTaskNetwork.MainRouter.eth[2].mac 	"bits/sec sent" 	2037592.64
scalar ExamTaskNetwork.MainRouter.eth[2].mac 	"bits/sec rcvd" 	80.416
scalar ExamTaskNetwork.MainRouter.eth[2].mac 	"rx channel idle (%)" 	99.999910752
scalar ExamTaskNetwork.MainRouter.eth[2].mac 	"rx channel utilization (%)" 	8.9248e-05
scalar ExamTaskNetwork.MainRouter.eth[2].mac 	rxPkFromHL:count 	84790
attr interpolationmode  none
attr source  rxPkFromHL
attr title  "packet bytes from higher layer, count"
scalar ExamTaskNetwork.MainRouter.eth[2].mac 	rxPkFromHL:sum(packetBytes) 	127349540
attr interpolationmode  none
attr source  rxPkFromHL
attr title  "packet bytes from higher layer, sum(packetBytes)"
scalar ExamTaskNetwork.MainRouter.eth[2].mac 	rxPausePkUnits:count 	0
attr interpolationmode  none
attr title  "pause units received, count"
scalar ExamTaskNetwork.MainRouter.eth[2].mac 	rxPausePkUnits:sum 	0
attr interpolationmode  none
attr title  "pause units received, sum"
scalar ExamTaskNetwork.MainRouter.eth[2].mac 	txPausePkUnits:count 	0
attr interpolationmode  none
attr title  "pause units sent, count"
scalar ExamTaskNetwork.MainRouter.eth[2].mac 	txPausePkUnits:sum 	0
attr interpolationmode  none
attr title  "pause units sent, sum"
scalar ExamTaskNetwork.MainRouter.eth[2].mac 	txPk:count 	84790
attr interpolationmode  none
attr source  txPk
attr title  "packets transmitted, count"
scalar ExamTaskNetwork.MainRouter.eth[2].mac 	txPk:sum(packetBytes) 	127349540
attr interpolationmode  none
attr source  txPk
attr title  "packets transmitted, sum(packetBytes)"
scalar ExamTaskNetwork.MainRouter.eth[2].mac 	droppedPkNotForUs:count 	0
attr interpolationmode  none
attr source  dropPkNotForUs
attr title  "packets dropped/not for us, count"
scalar ExamTaskNetwork.MainRouter.eth[2].mac 	droppedPkNotForUs:sum(packetBytes) 	0
attr interpolationmode  none
attr source  dropPkNotForUs
attr title  "packets dropped/not for us, sum(packetBytes)"
scalar ExamTaskNetwork.MainRouter.eth[2].mac 	passedUpPk:count 	69
attr interpolationmode  none
attr source  packetSentToUpper
attr title  "packets passed to higher layer, count"
scalar ExamTaskNetwork.MainRouter.eth[2].mac 	passedUpPk:sum(packetBytes) 	5026
attr interpolationmode  none
attr source  packetSentToUpper
attr title  "packets passed to higher layer, sum(packetBytes)"
scalar ExamTaskNetwork.MainRouter.eth[2].mac 	droppedPkBitError:count 	0
attr interpolationmode  none
attr source  dropPkBitError
attr title  "packets dropped/bit error, count"
scalar ExamTaskNetwork.MainRouter.eth[2].mac 	droppedPkBitError:sum(packetBytes) 	0
attr interpolationmode  none
attr source  dropPkBitError
attr title  "packets dropped/bit error, sum(packetBytes)"
scalar ExamTaskNetwork.MainRouter.eth[2].mac 	droppedPkIfaceDown:count 	0
attr interpolationmode  none
attr source  dropPkIfaceDown
attr title  "packets dropped/interface down, count"
scalar ExamTaskNetwork.MainRouter.eth[2].mac 	droppedPkIfaceDown:sum(packetBytes) 	0
attr interpolationmode  none
attr source  dropPkIfaceDown
attr title  "packets dropped/interface down, sum(packetBytes)"
scalar ExamTaskNetwork.MainRouter.eth[2].mac 	rxPkOk:count 	69
attr interpolationmode  none
attr source  rxPkOk
attr title  "packets received OK, count"
scalar ExamTaskNetwork.MainRouter.eth[2].mac 	rxPkOk:sum(packetBytes) 	5026
attr interpolationmode  none
attr source  rxPkOk
attr title  "packets received OK, sum(packetBytes)"
scalar ExamTaskNetwork.MainRouter.eth[2].encap 	pauseSent:count 	0
attr title  "pause sent, count"
scalar ExamTaskNetwork.MainRouter.eth[2].encap 	pauseSent:sum 	0
attr title  "pause sent, sum"
scalar ExamTaskNetwork.MainRouter.eth[2].encap 	decapPk:count 	69
attr interpolationmode  none
attr source  decapPk
attr title  "packets decapsulated, count"
scalar ExamTaskNetwork.MainRouter.eth[2].encap 	decapPk:sum(packetBytes) 	3640
attr interpolationmode  none
attr source  decapPk
attr title  "packets decapsulated, sum(packetBytes)"
scalar ExamTaskNetwork.MainRouter.eth[2].encap 	encapPk:count 	84790
attr interpolationmode  none
attr source  encapPk
attr title  "packets encapsulated, count"
scalar ExamTaskNetwork.MainRouter.eth[2].encap 	encapPk:sum(packetBytes) 	125823176
attr interpolationmode  none
attr source  encapPk
attr title  "packets encapsulated, sum(packetBytes)"
scalar ExamTaskNetwork.MainRouter.ppp[0].outputHook[0] 	duration 	500
scalar ExamTaskNetwork.MainRouter.ppp[0].outputHook[0] 	"total packets" 	394469
scalar ExamTaskNetwork.MainRouter.ppp[0].outputHook[0] 	"total bits" 	388921224
scalar ExamTaskNetwork.MainRouter.ppp[0].outputHook[0] 	"avg throughput (bit/s)" 	777842.448
scalar ExamTaskNetwork.MainRouter.ppp[0].outputHook[0] 	"avg packets/s" 	788.938
scalar ExamTaskNetwork.MainRouter.ppp[0].inputHook[0] 	duration 	500
scalar ExamTaskNetwork.MainRouter.ppp[0].inputHook[0] 	"total packets" 	466411
scalar ExamTaskNetwork.MainRouter.ppp[0].inputHook[0] 	"total bits" 	5486808616
scalar ExamTaskNetwork.MainRouter.ppp[0].inputHook[0] 	"avg throughput (bit/s)" 	10973617.232
scalar ExamTaskNetwork.MainRouter.ppp[0].inputHook[0] 	"avg packets/s" 	932.822
statistic ExamTaskNetwork.MainRouter.ppp[0].queue 	queueingTime:histogram
field count 393097
field mean 0.00023947471255348
field stddev 0.0015528223721668
field sum 94.136791080634
field sqrsum 0.97039898825159
field min 0
field max 0.035483440809
attr interpolationmode  none
attr title  "queueing time, histogram"
bin	-INF	0
bin	-0.001983504302	0
bin	-0.0017190370617333	0
bin	-0.0014545698214667	0
bin	-0.0011901025812	0
bin	-0.00092563534093333	0
bin	-0.00066116810066667	0
bin	-0.0003967008604	0
bin	-0.00013223362013333	364401
bin	0.00013223362013333	3057
bin	0.0003967008604	2908
bin	0.00066116810066667	4601
bin	0.00092563534093333	5743
bin	0.0011901025812	351
bin	0.0014545698214667	341
bin	0.0017190370617333	2020
bin	0.001983504302	561
bin	0.0022479715422667	232
bin	0.0025124387825333	440
bin	0.0027769060228	648
bin	0.0030413732630667	357
bin	0.0033058405033333	160
bin	0.0035703077436	551
bin	0.0038347749838667	239
bin	0.0040992422241333	217
bin	0.0043637094644	344
bin	0.0046281767046667	190
bin	0.0048926439449333	173
bin	0.0051571111852	247
bin	0.0054215784254667	248
bin	0.0056860456657333	125
bin	0.005950512906	4943
scalar ExamTaskNetwork.MainRouter.ppp[0].queue 	dropPk:count 	1372
attr interpolationmode  none
attr source  dropPkByQueue
attr title  "dropped packets, count"
scalar ExamTaskNetwork.MainRouter.ppp[0].queue 	dropPk:sum(packetBytes) 	956196
attr interpolationmode  none
attr source  dropPkByQueue
attr title  "dropped packets, sum(packetBytes)"
scalar ExamTaskNetwork.MainRouter.ppp[0].queue 	queueLength:max 	50
attr interpolationmode  sample-hold
attr title  "queue length, max"
scalar ExamTaskNetwork.MainRouter.ppp[0].queue 	queueLength:timeavg 	0.18827358216128
attr interpolationmode  sample-hold
attr title  "queue length, timeavg"
scalar ExamTaskNetwork.MainRouter.ppp[0].queue 	rcvdPk:count 	394469
attr interpolationmode  none
attr title  "received packets, count"
scalar ExamTaskNetwork.MainRouter.ppp[0].queue 	rcvdPk:sum(packetBytes) 	48615153
attr interpolationmode  none
attr title  "received packets, sum(packetBytes)"
scalar ExamTaskNetwork.MainRouter.ppp[0].ppp 	rcvdPkFromHL:count 	393097
attr interpolationmode  none
attr source  packetReceivedFromUpper
attr title  "packets received from higher layer, count"
scalar ExamTaskNetwork.MainRouter.ppp[0].ppp 	rcvdPkFromHL:sum(packetBytes) 	47658957
attr interpolationmode  none
attr source  packetReceivedFromUpper
attr title  "packets received from higher layer, sum(packetBytes)"
scalar ExamTaskNetwork.MainRouter.ppp[0].ppp 	passedUpPk:count 	466411
attr interpolationmode  none
attr source  packetSentToUpper
attr title  "packets passed to higher layer, count"
scalar ExamTaskNetwork.MainRouter.ppp[0].ppp 	passedUpPk:sum(packetBytes) 	685851077
attr interpolationmode  none
attr source  packetSentToUpper
attr title  "packets passed to higher layer, sum(packetBytes)"
scalar ExamTaskNetwork.MainRouter.ppp[0].ppp 	txPk:count 	393097
attr interpolationmode  none
attr source  packetSentToLower
attr title  "packets transmitted, count"
scalar ExamTaskNetwork.MainRouter.ppp[0].ppp 	txPk:sum(packetBytes) 	50410636
attr interpolationmode  none
attr source  packetSentToLower
attr title  "packets transmitted, sum(packetBytes)"
scalar ExamTaskNetwork.MainRouter.ppp[0].ppp 	droppedPkBitError:count 	0
attr interpolationmode  none
attr source  dropPkBitError
attr title  "packets dropped/bit error, count"
scalar ExamTaskNetwork.MainRouter.ppp[0].ppp 	droppedPkBitError:sum(packetBytes) 	0
attr interpolationmode  none
attr source  dropPkBitError
attr title  "packets dropped/bit error, sum(packetBytes)"
scalar ExamTaskNetwork.MainRouter.ppp[0].ppp 	droppedPkIfaceDown:count 	0
attr interpolationmode  none
attr source  dropPkIfaceDown
attr title  "packets dropped/interface down, count"
scalar ExamTaskNetwork.MainRouter.ppp[0].ppp 	droppedPkIfaceDown:sum(packetBytes) 	0
attr interpolationmode  none
attr source  dropPkIfaceDown
attr title  "packets dropped/interface down, sum(packetBytes)"
scalar ExamTaskNetwork.MainRouter.ppp[0].ppp 	rxPkOk:count 	466411
attr interpolationmode  none
attr source  rxPkOk
attr title  "packets received OK, count"
scalar ExamTaskNetwork.MainRouter.ppp[0].ppp 	rxPkOk:sum(packetBytes) 	689115954
attr interpolationmode  none
attr source  rxPkOk
attr title  "packets received OK, sum(packetBytes)"
scalar ExamTaskNetwork.MainRouter.ppp[0].ppp 	txState:timeavg 	0.067214181062542
attr interpolationmode  sample-hold
attr title  "tx state, timeavg"
scalar ExamTaskNetwork.Internet.networkLayer.arp 	initiatedARPResolution:count 	9
attr title  "ARP initiated resolutions, count"
scalar ExamTaskNetwork.Internet.networkLayer.arp 	sentReply:count 	2
attr title  "ARP replies sent, count"
scalar ExamTaskNetwork.Internet.networkLayer.arp 	sentReq:count 	9
attr title  "ARP request sent, count"
scalar ExamTaskNetwork.Internet.networkLayer.arp 	failedARPResolution:count 	0
attr title  "ARP failed resolutions, count"
scalar ExamTaskNetwork.Internet.networkLayer.arp 	completedARPResolution:count 	11
attr title  "ARP completed resolutions, count"
scalar ExamTaskNetwork.Internet.lo0.lo 	rcvdPkFromHL:count 	0
attr interpolationmode  none
attr source  packetReceivedFromUpper
attr title  "packets received from higher layer, count"
scalar ExamTaskNetwork.Internet.lo0.lo 	rcvdPkFromHL:sum(packetBytes) 	0
attr interpolationmode  none
attr source  packetReceivedFromUpper
attr title  "packets received from higher layer, sum(packetBytes)"
scalar ExamTaskNetwork.Internet.lo0.lo 	passedUpPk:count 	0
attr interpolationmode  none
attr source  packetSentToUpper
attr title  "packets passed to higher layer, count"
scalar ExamTaskNetwork.Internet.lo0.lo 	passedUpPk:sum(packetBytes) 	0
attr interpolationmode  none
attr source  packetSentToUpper
attr title  "packets passed to higher layer, sum(packetBytes)"
scalar ExamTaskNetwork.Internet.lo0.lo 	droppedPkBitError:count 	0
attr interpolationmode  none
attr source  dropPkBitError
attr title  "packets dropped/bit error, count"
scalar ExamTaskNetwork.Internet.lo0.lo 	droppedPkBitError:sum(packetBytes) 	0
attr interpolationmode  none
attr source  dropPkBitError
attr title  "packets dropped/bit error, sum(packetBytes)"
scalar ExamTaskNetwork.Internet.eth[0].mac 	"simulated time" 	500
scalar ExamTaskNetwork.Internet.eth[0].mac 	full-duplex 	1
scalar ExamTaskNetwork.Internet.eth[0].mac 	"frames/sec sent" 	764.492
scalar ExamTaskNetwork.Internet.eth[0].mac 	"frames/sec rcvd" 	1459.054
scalar ExamTaskNetwork.Internet.eth[0].mac 	"bits/sec sent" 	647245.424
scalar ExamTaskNetwork.Internet.eth[0].mac 	"bits/sec rcvd" 	9124536.08
scalar ExamTaskNetwork.Internet.eth[0].mac 	"rx channel idle (%)" 	90.782084464
scalar ExamTaskNetwork.Internet.eth[0].mac 	"rx channel utilization (%)" 	9.2179155359996
scalar ExamTaskNetwork.Internet.eth[0].mac 	rxPkFromHL:count 	382246
attr interpolationmode  none
attr source  rxPkFromHL
attr title  "packet bytes from higher layer, count"
scalar ExamTaskNetwork.Internet.eth[0].mac 	rxPkFromHL:sum(packetBytes) 	40452839
attr interpolationmode  none
attr source  rxPkFromHL
attr title  "packet bytes from higher layer, sum(packetBytes)"
scalar ExamTaskNetwork.Internet.eth[0].mac 	rxPausePkUnits:count 	0
attr interpolationmode  none
attr title  "pause units received, count"
scalar ExamTaskNetwork.Internet.eth[0].mac 	rxPausePkUnits:sum 	0
attr interpolationmode  none
attr title  "pause units received, sum"
scalar ExamTaskNetwork.Internet.eth[0].mac 	txPausePkUnits:count 	0
attr interpolationmode  none
attr title  "pause units sent, count"
scalar ExamTaskNetwork.Internet.eth[0].mac 	txPausePkUnits:sum 	0
attr interpolationmode  none
attr title  "pause units sent, sum"
scalar ExamTaskNetwork.Internet.eth[0].mac 	txPk:count 	382246
attr interpolationmode  none
attr source  txPk
attr title  "packets transmitted, count"
scalar ExamTaskNetwork.Internet.eth[0].mac 	txPk:sum(packetBytes) 	40452839
attr interpolationmode  none
attr source  txPk
attr title  "packets transmitted, sum(packetBytes)"
scalar ExamTaskNetwork.Internet.eth[0].mac 	droppedPkNotForUs:count 	0
attr interpolationmode  none
attr source  dropPkNotForUs
attr title  "packets dropped/not for us, count"
scalar ExamTaskNetwork.Internet.eth[0].mac 	droppedPkNotForUs:sum(packetBytes) 	0
attr interpolationmode  none
attr source  dropPkNotForUs
attr title  "packets dropped/not for us, sum(packetBytes)"
scalar ExamTaskNetwork.Internet.eth[0].mac 	passedUpPk:count 	729527
attr interpolationmode  none
attr source  packetSentToUpper
attr title  "packets passed to higher layer, count"
scalar ExamTaskNetwork.Internet.eth[0].mac 	passedUpPk:sum(packetBytes) 	570283505
attr interpolationmode  none
attr source  packetSentToUpper
attr title  "packets passed to higher layer, sum(packetBytes)"
scalar ExamTaskNetwork.Internet.eth[0].mac 	droppedPkBitError:count 	0
attr interpolationmode  none
attr source  dropPkBitError
attr title  "packets dropped/bit error, count"
scalar ExamTaskNetwork.Internet.eth[0].mac 	droppedPkBitError:sum(packetBytes) 	0
attr interpolationmode  none
attr source  dropPkBitError
attr title  "packets dropped/bit error, sum(packetBytes)"
scalar ExamTaskNetwork.Internet.eth[0].mac 	droppedPkIfaceDown:count 	0
attr interpolationmode  none
attr source  dropPkIfaceDown
attr title  "packets dropped/interface down, count"
scalar ExamTaskNetwork.Internet.eth[0].mac 	droppedPkIfaceDown:sum(packetBytes) 	0
attr interpolationmode  none
attr source  dropPkIfaceDown
attr title  "packets dropped/interface down, sum(packetBytes)"
scalar ExamTaskNetwork.Internet.eth[0].mac 	rxPkOk:count 	729527
attr interpolationmode  none
attr source  rxPkOk
attr title  "packets received OK, count"
scalar ExamTaskNetwork.Internet.eth[0].mac 	rxPkOk:sum(packetBytes) 	570283505
attr interpolationmode  none
attr source  rxPkOk
attr title  "packets received OK, sum(packetBytes)"
scalar ExamTaskNetwork.Internet.eth[0].encap 	pauseSent:count 	0
attr title  "pause sent, count"
scalar ExamTaskNetwork.Internet.eth[0].encap 	pauseSent:sum 	0
attr title  "pause sent, sum"
scalar ExamTaskNetwork.Internet.eth[0].encap 	decapPk:count 	729527
attr interpolationmode  none
attr source  decapPk
attr title  "packets decapsulated, count"
scalar ExamTaskNetwork.Internet.eth[0].encap 	decapPk:sum(packetBytes) 	549895561
attr interpolationmode  none
attr source  decapPk
attr title  "packets decapsulated, sum(packetBytes)"
scalar ExamTaskNetwork.Internet.eth[0].encap 	encapPk:count 	382246
attr interpolationmode  none
attr source  encapPk
attr title  "packets encapsulated, count"
scalar ExamTaskNetwork.Internet.eth[0].encap 	encapPk:sum(packetBytes) 	31191525
attr interpolationmode  none
attr source  encapPk
attr title  "packets encapsulated, sum(packetBytes)"
scalar ExamTaskNetwork.Internet.tcpApp[0] 	sentPk:count 	23
attr interpolationmode  none
attr source  sentPk
attr title  "packets sent, count"
scalar ExamTaskNetwork.Internet.tcpApp[0] 	sentPk:sum(packetBytes) 	13074769
attr interpolationmode  none
attr source  sentPk
attr title  "packets sent, sum(packetBytes)"
scalar ExamTaskNetwork.Internet.tcpApp[0] 	rcvdPk:count 	23
attr interpolationmode  none
attr source  rcvdPk
attr title  "packets received, count"
scalar ExamTaskNetwork.Internet.tcpApp[0] 	rcvdPk:sum(packetBytes) 	188416
attr interpolationmode  none
attr source  rcvdPk
attr title  "packets received, sum(packetBytes)"
statistic ExamTaskNetwork.Internet.tcpApp[0] 	endToEndDelay:histogram
field count 23
field mean 0.26275341254496
field stddev 0.046948442566795
field sum 6.043328488534
field sqrsum 1.6363966212003
field min 0.209969618351
field max 0.343392066615
attr interpolationmode  none
attr source  messageAge(rcvdPk)
attr title  "end-to-end delay, histogram"
attr unit  s
bin	-INF	0
bin	0.143258394219	0
bin	0.15215322410327	0
bin	0.16104805398753	0
bin	0.1699428838718	0
bin	0.17883771375607	0
bin	0.18773254364033	0
bin	0.1966273735246	0
bin	0.20552220340887	3
bin	0.21441703329313	4
bin	0.2233118631774	4
bin	0.23220669306167	0
bin	0.24110152294593	1
bin	0.2499963528302	0
bin	0.25889118271447	0
bin	0.26778601259873	2
bin	0.276680842483	2
bin	0.28557567236727	0
bin	0.29447050225153	1
bin	0.3033653321358	1
bin	0.31226016202007	2
bin	0.32115499190433	0
bin	0.3300498217886	2
bin	0.33894465167287	1
bin	0.34783948155713	0
bin	0.3567343114414	0
bin	0.36562914132567	0
bin	0.37452397120993	0
bin	0.3834188010942	0
bin	0.39231363097847	0
bin	0.40120846086273	0
bin	0.410103290747	0
scalar ExamTaskNetwork.Internet.tcpApp[1] 	rcvdPk:count 	0
attr interpolationmode  none
attr source  rcvdPk
attr title  "packets received, count"
scalar ExamTaskNetwork.Internet.tcpApp[1] 	rcvdPk:sum(packetBytes) 	0
attr interpolationmode  none
attr source  rcvdPk
attr title  "packets received, sum(packetBytes)"
statistic ExamTaskNetwork.Internet.tcpApp[1] 	endToEndDelay:histogram
field count 0
field mean -nan
field stddev -nan
field sum 0
field sqrsum 0
field min -nan
field max -nan
attr interpolationmode  none
attr source  messageAge(rcvdPk)
attr title  "end-to-end delay, histogram"
attr unit  s
bin	-INF	0
bin	-0.5	0
bin	-0.46666666666667	0
bin	-0.43333333333333	0
bin	-0.4	0
bin	-0.36666666666667	0
bin	-0.33333333333333	0
bin	-0.3	0
bin	-0.26666666666667	0
bin	-0.23333333333333	0
bin	-0.2	0
bin	-0.16666666666667	0
bin	-0.13333333333333	0
bin	-0.1	0
bin	-0.066666666666667	0
bin	-0.033333333333333	0
bin	0	0
bin	0.033333333333333	0
bin	0.066666666666667	0
bin	0.1	0
bin	0.13333333333333	0
bin	0.16666666666667	0
bin	0.2	0
bin	0.23333333333333	0
bin	0.26666666666667	0
bin	0.3	0
bin	0.33333333333333	0
bin	0.36666666666667	0
bin	0.4	0
bin	0.43333333333333	0
bin	0.46666666666667	0
bin	0.5	0
