version 2
run ExamTaskNetwork-22-20160819-02:25:50-25763
attr configname ExamTaskNetwork
attr datetime 20160819-02:25:50
attr experiment ExamTaskNetwork
attr inifile omnetpp.ini
attr iterationvars "$simtime=500, $0=10"
attr iterationvars2 "$simtime=500, $0=10, $repetition=2"
attr measurement "$simtime=500, $0=10"
attr network ExamTaskNetwork
attr processid 25763
attr repetition 2
attr replication #2
attr resultdir results
attr runnumber 22
attr seedset 22
attr simtime 500

scalar . 	simtime 	500
scalar ExamTaskNetwork.ConferenceLaptop.networkLayer.arp 	initiatedARPResolution:count 	5
attr title  "ARP initiated resolutions, count"
scalar ExamTaskNetwork.ConferenceLaptop.networkLayer.arp 	sentReply:count 	4
attr title  "ARP replies sent, count"
scalar ExamTaskNetwork.ConferenceLaptop.networkLayer.arp 	sentReq:count 	5
attr title  "ARP request sent, count"
scalar ExamTaskNetwork.ConferenceLaptop.networkLayer.arp 	failedARPResolution:count 	0
attr title  "ARP failed resolutions, count"
scalar ExamTaskNetwork.ConferenceLaptop.networkLayer.arp 	completedARPResolution:count 	20
attr title  "ARP completed resolutions, count"
scalar ExamTaskNetwork.ConferenceLaptop.lo0.lo 	rcvdPkFromHL:count 	0
attr interpolationmode  none
attr source  packetReceivedFromUpper
attr title  "packets received from higher layer, count"
scalar ExamTaskNetwork.ConferenceLaptop.lo0.lo 	rcvdPkFromHL:sum(packetBytes) 	0
attr interpolationmode  none
attr source  packetReceivedFromUpper
attr title  "packets received from higher layer, sum(packetBytes)"
scalar ExamTaskNetwork.ConferenceLaptop.lo0.lo 	passedUpPk:count 	0
attr interpolationmode  none
attr source  packetSentToUpper
attr title  "packets passed to higher layer, count"
scalar ExamTaskNetwork.ConferenceLaptop.lo0.lo 	passedUpPk:sum(packetBytes) 	0
attr interpolationmode  none
attr source  packetSentToUpper
attr title  "packets passed to higher layer, sum(packetBytes)"
scalar ExamTaskNetwork.ConferenceLaptop.lo0.lo 	droppedPkBitError:count 	0
attr interpolationmode  none
attr source  dropPkBitError
attr title  "packets dropped/bit error, count"
scalar ExamTaskNetwork.ConferenceLaptop.lo0.lo 	droppedPkBitError:sum(packetBytes) 	0
attr interpolationmode  none
attr source  dropPkBitError
attr title  "packets dropped/bit error, sum(packetBytes)"
scalar ExamTaskNetwork.ConferenceLaptop.wlan[0].agent 	dropConfirm:count 	0
attr title  "dropped confirms, count"
scalar ExamTaskNetwork.ConferenceLaptop.wlan[0].agent 	acceptConfirm:count 	27
attr title  "accepted confirms, count"
scalar ExamTaskNetwork.ConferenceLaptop.wlan[0].agent 	sentRequest:count 	27
attr title  "sent requests, count"
scalar ExamTaskNetwork.ConferenceLaptop.wlan[0].mgmt 	dropPkByQueue:count 	0
attr interpolationmode  none
attr source  dropPkByQueue
attr title  "packets dropped by queue, count"
scalar ExamTaskNetwork.ConferenceLaptop.wlan[0].mgmt 	dropPkByQueue:sum(packetBytes) 	0
attr interpolationmode  none
attr source  dropPkByQueue
attr title  "packets dropped by queue, sum(packetBytes)"
scalar ExamTaskNetwork.ConferenceLaptop.wlan[0].mgmt 	dataQueueLen:max 	3
attr interpolationmode  sample-hold
attr title  "data queue length, max"
scalar ExamTaskNetwork.ConferenceLaptop.wlan[0].mgmt 	dataQueueLen:timeavg 	0.001504942377
attr interpolationmode  sample-hold
attr title  "data queue length, timeavg"
scalar ExamTaskNetwork.ConferenceLaptop.wlan[0].mac 	"number of received packets" 	12124
scalar ExamTaskNetwork.ConferenceLaptop.wlan[0].mac 	"number of collisions" 	21458
scalar ExamTaskNetwork.ConferenceLaptop.wlan[0].mac 	"number of internal collisions" 	0
scalar ExamTaskNetwork.ConferenceLaptop.wlan[0].mac 	"number of retry for AC 0" 	3744
scalar ExamTaskNetwork.ConferenceLaptop.wlan[0].mac 	"sent and received bits" 	142441344
scalar ExamTaskNetwork.ConferenceLaptop.wlan[0].mac 	"sent packet within AC 0" 	12147
scalar ExamTaskNetwork.ConferenceLaptop.wlan[0].mac 	"sent in TXOP " 	0
scalar ExamTaskNetwork.ConferenceLaptop.wlan[0].mac 	"sentWithoutRetry AC 0" 	9391
scalar ExamTaskNetwork.ConferenceLaptop.wlan[0].mac 	"numGivenUp AC 0" 	3
scalar ExamTaskNetwork.ConferenceLaptop.wlan[0].mac 	"numDropped AC 0" 	0
scalar ExamTaskNetwork.ConferenceLaptop.wlan[0].mac 	rcvdPkFromHL:count 	12159
attr interpolationmode  none
attr source  packetReceivedFromUpper
attr title  "packets received from higher layer, count"
scalar ExamTaskNetwork.ConferenceLaptop.wlan[0].mac 	rcvdPkFromHL:sum(packetBytes) 	17809578
attr interpolationmode  none
attr source  packetReceivedFromUpper
attr title  "packets received from higher layer, sum(packetBytes)"
scalar ExamTaskNetwork.ConferenceLaptop.wlan[0].mac 	passedUpPk:count 	16807
attr interpolationmode  none
attr source  packetSentToUpper
attr title  "packets passed to higher layer, count"
scalar ExamTaskNetwork.ConferenceLaptop.wlan[0].mac 	passedUpPk:sum(packetBytes) 	18136964
attr interpolationmode  none
attr source  packetSentToUpper
attr title  "packets passed to higher layer, sum(packetBytes)"
scalar ExamTaskNetwork.ConferenceLaptop.wlan[0].mac 	rcvdPkFromLL:count 	1623855
attr interpolationmode  none
attr source  packetReceivedFromLower
attr title  "packets received from lower layer, count"
scalar ExamTaskNetwork.ConferenceLaptop.wlan[0].mac 	rcvdPkFromLL:sum(packetBytes) 	641159931
attr interpolationmode  none
attr source  packetReceivedFromLower
attr title  "packets received from lower layer, sum(packetBytes)"
scalar ExamTaskNetwork.ConferenceLaptop.wlan[0].mac 	sentDownPk:count 	28027
attr interpolationmode  none
attr source  packetSentToLower
attr title  "packets sent to lower layer, count"
scalar ExamTaskNetwork.ConferenceLaptop.wlan[0].mac 	sentDownPk:sum(packetBytes) 	23451474
attr interpolationmode  none
attr source  packetSentToLower
attr title  "packets sent to lower layer, sum(packetBytes)"
scalar ExamTaskNetwork.ConferenceLaptop.wlan[0].radio 	lossRate:min 	0
attr interpolationmode  backward-sample-hold
attr title  "packet loss rate, min"
scalar ExamTaskNetwork.ConferenceLaptop.wlan[0].radio 	lossRate:max 	0.16
attr interpolationmode  backward-sample-hold
attr title  "packet loss rate, max"
scalar ExamTaskNetwork.ConferenceLaptop.wlan[0].radio 	lossRate:timeavg 	0.012091948680928
attr interpolationmode  backward-sample-hold
attr title  "packet loss rate, timeavg"
statistic ExamTaskNetwork.ConferenceLaptop.wlan[0].radio 	channelNo:histogram
field count 1
field mean 0
field stddev -nan
field sum 0
field sqrsum 0
field min 0
field max 0
attr interpolationmode  sample-hold
attr title  "channel no, histogram"
bin	-INF	0
bin	-0.5	0
bin	-0.46666666666667	0
bin	-0.43333333333333	0
bin	-0.4	0
bin	-0.36666666666667	0
bin	-0.33333333333333	0
bin	-0.3	0
bin	-0.26666666666667	0
bin	-0.23333333333333	0
bin	-0.2	0
bin	-0.16666666666667	0
bin	-0.13333333333333	0
bin	-0.1	0
bin	-0.066666666666667	0
bin	-0.033333333333333	0
bin	0	1
bin	0.033333333333333	0
bin	0.066666666666667	0
bin	0.1	0
bin	0.13333333333333	0
bin	0.16666666666667	0
bin	0.2	0
bin	0.23333333333333	0
bin	0.26666666666667	0
bin	0.3	0
bin	0.33333333333333	0
bin	0.36666666666667	0
bin	0.4	0
bin	0.43333333333333	0
bin	0.46666666666667	0
bin	0.5	0
scalar ExamTaskNetwork.ConferenceLaptop.wlan[0].radio 	radioState:count 	3307939
attr interpolationmode  sample-hold
attr title  "radio state (enum), count"
scalar ExamTaskNetwork.ConferenceLaptop.wlan[0].radio 	bitrate:min 	54000000
attr interpolationmode  sample-hold
attr title  "tx bitrate, min"
attr unit  bps
scalar ExamTaskNetwork.ConferenceLaptop.wlan[0].radio 	bitrate:max 	54000000
attr interpolationmode  sample-hold
attr title  "tx bitrate, max"
attr unit  bps
scalar ExamTaskNetwork.ConferenceLaptop.wlan[0].radio 	bitrate:timeavg 	54000000
attr interpolationmode  sample-hold
attr title  "tx bitrate, timeavg"
attr unit  bps
scalar ExamTaskNetwork.ConferenceLaptop.udpApp[0] 	"packets sent" 	12200
scalar ExamTaskNetwork.ConferenceLaptop.udpApp[0] 	"packets received" 	12006
scalar ExamTaskNetwork.ConferenceLaptop.udpApp[0] 	lateRatio 	8.3291684859432e-05
scalar ExamTaskNetwork.ConferenceLaptop.udpApp[0] 	"discarded packets" 	1
statistic ExamTaskNetwork.ConferenceLaptop.udpApp[0] 	endToEndDelay:stats
field count 12006
field mean 0.030219198311877
field stddev 0.016375208175254
field sum 362.81169493239
field sqrsum 14.182988609639
field min 0.016437092882
field max 0.100969264687
attr source  VoIPPacketDelay
attr title  "VoIP Packet End-to-End Delay, stats"
attr unit  s
scalar ExamTaskNetwork.ConferenceLaptop.udpApp[0] 	sentPk:count 	12200
attr interpolationmode  none
attr source  sentPk
attr title  "packets sent, count"
scalar ExamTaskNetwork.ConferenceLaptop.udpApp[0] 	sentPk:sum(packetBytes) 	17080000
attr interpolationmode  none
attr source  sentPk
attr title  "packets sent, sum(packetBytes)"
scalar ExamTaskNetwork.ConferenceLaptop.udpApp[0] 	rcvdPk:count 	12006
attr interpolationmode  none
attr source  rcvdPk
attr title  "packets received, count"
scalar ExamTaskNetwork.ConferenceLaptop.udpApp[0] 	rcvdPk:sum(packetBytes) 	16808400
attr interpolationmode  none
attr source  rcvdPk
attr title  "packets received, sum(packetBytes)"
statistic ExamTaskNetwork.ConferenceLaptop.udpApp[0] 	rcvdPkLifetime:stats
field count 12006
field mean 0.030219198311877
field stddev 0.016375208175254
field sum 362.81169493239
field sqrsum 14.182988609639
field min 0.016437092882
field max 0.100969264687
attr interpolationmode  none
attr source  messageAge(rcvdPk)
attr title  "received packet lifetime, stats"
attr unit  s
scalar ExamTaskNetwork.ConferenceLaptop.udp 	droppedPkBadChecksum:count 	0
attr interpolationmode  none
attr title  "packets dropped (checksum error), count"
scalar ExamTaskNetwork.ConferenceLaptop.udp 	droppedPkWrongPort:count 	0
attr interpolationmode  none
attr title  "packets dropped (wrong port), count"
scalar ExamTaskNetwork.ConferenceLaptop.udp 	passedUpPk:count 	12006
attr interpolationmode  none
attr title  "packets passed up, count"
scalar ExamTaskNetwork.ConferenceLaptop.udp 	sentPk:count 	12200
attr interpolationmode  none
attr source  sentPk
attr title  "packets sent, count"
scalar ExamTaskNetwork.ConferenceLaptop.udp 	sentPk:sum(packetBytes) 	17177600
attr interpolationmode  none
attr source  sentPk
attr title  "packets sent, sum(packetBytes)"
scalar ExamTaskNetwork.ConferenceLaptop.udp 	rcvdPk:count 	12006
attr interpolationmode  none
attr source  rcvdPk
attr title  "packets received, count"
scalar ExamTaskNetwork.ConferenceLaptop.udp 	rcvdPk:sum(packetBytes) 	16904448
attr interpolationmode  none
attr source  rcvdPk
attr title  "packets received, sum(packetBytes)"
scalar ExamTaskNetwork.FTPLaptop.networkLayer.arp 	initiatedARPResolution:count 	5
attr title  "ARP initiated resolutions, count"
scalar ExamTaskNetwork.FTPLaptop.networkLayer.arp 	sentReply:count 	3
attr title  "ARP replies sent, count"
scalar ExamTaskNetwork.FTPLaptop.networkLayer.arp 	sentReq:count 	6
attr title  "ARP request sent, count"
scalar ExamTaskNetwork.FTPLaptop.networkLayer.arp 	failedARPResolution:count 	0
attr title  "ARP failed resolutions, count"
scalar ExamTaskNetwork.FTPLaptop.networkLayer.arp 	completedARPResolution:count 	23
attr title  "ARP completed resolutions, count"
scalar ExamTaskNetwork.FTPLaptop.lo0.lo 	rcvdPkFromHL:count 	0
attr interpolationmode  none
attr source  packetReceivedFromUpper
attr title  "packets received from higher layer, count"
scalar ExamTaskNetwork.FTPLaptop.lo0.lo 	rcvdPkFromHL:sum(packetBytes) 	0
attr interpolationmode  none
attr source  packetReceivedFromUpper
attr title  "packets received from higher layer, sum(packetBytes)"
scalar ExamTaskNetwork.FTPLaptop.lo0.lo 	passedUpPk:count 	0
attr interpolationmode  none
attr source  packetSentToUpper
attr title  "packets passed to higher layer, count"
scalar ExamTaskNetwork.FTPLaptop.lo0.lo 	passedUpPk:sum(packetBytes) 	0
attr interpolationmode  none
attr source  packetSentToUpper
attr title  "packets passed to higher layer, sum(packetBytes)"
scalar ExamTaskNetwork.FTPLaptop.lo0.lo 	droppedPkBitError:count 	0
attr interpolationmode  none
attr source  dropPkBitError
attr title  "packets dropped/bit error, count"
scalar ExamTaskNetwork.FTPLaptop.lo0.lo 	droppedPkBitError:sum(packetBytes) 	0
attr interpolationmode  none
attr source  dropPkBitError
attr title  "packets dropped/bit error, sum(packetBytes)"
scalar ExamTaskNetwork.FTPLaptop.wlan[0].agent 	dropConfirm:count 	0
attr title  "dropped confirms, count"
scalar ExamTaskNetwork.FTPLaptop.wlan[0].agent 	acceptConfirm:count 	27
attr title  "accepted confirms, count"
scalar ExamTaskNetwork.FTPLaptop.wlan[0].agent 	sentRequest:count 	27
attr title  "sent requests, count"
scalar ExamTaskNetwork.FTPLaptop.wlan[0].mgmt 	dropPkByQueue:count 	1333
attr interpolationmode  none
attr source  dropPkByQueue
attr title  "packets dropped by queue, count"
scalar ExamTaskNetwork.FTPLaptop.wlan[0].mgmt 	dropPkByQueue:sum(packetBytes) 	2063462
attr interpolationmode  none
attr source  dropPkByQueue
attr title  "packets dropped by queue, sum(packetBytes)"
scalar ExamTaskNetwork.FTPLaptop.wlan[0].mgmt 	dataQueueLen:max 	50
attr interpolationmode  sample-hold
attr title  "data queue length, max"
scalar ExamTaskNetwork.FTPLaptop.wlan[0].mgmt 	dataQueueLen:timeavg 	4.8943055866893
attr interpolationmode  sample-hold
attr title  "data queue length, timeavg"
scalar ExamTaskNetwork.FTPLaptop.wlan[0].mac 	"number of received packets" 	250576
scalar ExamTaskNetwork.FTPLaptop.wlan[0].mac 	"number of collisions" 	1726
scalar ExamTaskNetwork.FTPLaptop.wlan[0].mac 	"number of internal collisions" 	0
scalar ExamTaskNetwork.FTPLaptop.wlan[0].mac 	"number of retry for AC 0" 	41188
scalar ExamTaskNetwork.FTPLaptop.wlan[0].mac 	"sent and received bits" 	3169140192
scalar ExamTaskNetwork.FTPLaptop.wlan[0].mac 	"sent packet within AC 0" 	255979
scalar ExamTaskNetwork.FTPLaptop.wlan[0].mac 	"sent in TXOP " 	0
scalar ExamTaskNetwork.FTPLaptop.wlan[0].mac 	"sentWithoutRetry AC 0" 	222319
scalar ExamTaskNetwork.FTPLaptop.wlan[0].mac 	"numGivenUp AC 0" 	1
scalar ExamTaskNetwork.FTPLaptop.wlan[0].mac 	"numDropped AC 0" 	0
scalar ExamTaskNetwork.FTPLaptop.wlan[0].mac 	rcvdPkFromHL:count 	255989
attr interpolationmode  none
attr source  packetReceivedFromUpper
attr title  "packets received from higher layer, count"
scalar ExamTaskNetwork.FTPLaptop.wlan[0].mac 	rcvdPkFromHL:sum(packetBytes) 	396144072
attr interpolationmode  none
attr source  packetReceivedFromUpper
attr title  "packets received from higher layer, sum(packetBytes)"
scalar ExamTaskNetwork.FTPLaptop.wlan[0].mac 	passedUpPk:count 	255255
attr interpolationmode  none
attr source  packetSentToUpper
attr title  "packets passed to higher layer, count"
scalar ExamTaskNetwork.FTPLaptop.wlan[0].mac 	passedUpPk:sum(packetBytes) 	20908888
attr interpolationmode  none
attr source  packetSentToUpper
attr title  "packets passed to higher layer, sum(packetBytes)"
scalar ExamTaskNetwork.FTPLaptop.wlan[0].mac 	rcvdPkFromLL:count 	1104129
attr interpolationmode  none
attr source  packetReceivedFromLower
attr title  "packets received from lower layer, count"
scalar ExamTaskNetwork.FTPLaptop.wlan[0].mac 	rcvdPkFromLL:sum(packetBytes) 	223162040
attr interpolationmode  none
attr source  packetReceivedFromLower
attr title  "packets received from lower layer, sum(packetBytes)"
scalar ExamTaskNetwork.FTPLaptop.wlan[0].mac 	sentDownPk:count 	547753
attr interpolationmode  none
attr source  packetSentToLower
attr title  "packets sent to lower layer, count"
scalar ExamTaskNetwork.FTPLaptop.wlan[0].mac 	sentDownPk:sum(packetBytes) 	463377888
attr interpolationmode  none
attr source  packetSentToLower
attr title  "packets sent to lower layer, sum(packetBytes)"
scalar ExamTaskNetwork.FTPLaptop.wlan[0].radio 	lossRate:min 	0
attr interpolationmode  backward-sample-hold
attr title  "packet loss rate, min"
scalar ExamTaskNetwork.FTPLaptop.wlan[0].radio 	lossRate:max 	0.12
attr interpolationmode  backward-sample-hold
attr title  "packet loss rate, max"
scalar ExamTaskNetwork.FTPLaptop.wlan[0].radio 	lossRate:timeavg 	0.0015064831126768
attr interpolationmode  backward-sample-hold
attr title  "packet loss rate, timeavg"
statistic ExamTaskNetwork.FTPLaptop.wlan[0].radio 	channelNo:histogram
field count 1
field mean 0
field stddev -nan
field sum 0
field sqrsum 0
field min 0
field max 0
attr interpolationmode  sample-hold
attr title  "channel no, histogram"
bin	-INF	0
bin	-0.5	0
bin	-0.46666666666667	0
bin	-0.43333333333333	0
bin	-0.4	0
bin	-0.36666666666667	0
bin	-0.33333333333333	0
bin	-0.3	0
bin	-0.26666666666667	0
bin	-0.23333333333333	0
bin	-0.2	0
bin	-0.16666666666667	0
bin	-0.13333333333333	0
bin	-0.1	0
bin	-0.066666666666667	0
bin	-0.033333333333333	0
bin	0	1
bin	0.033333333333333	0
bin	0.066666666666667	0
bin	0.1	0
bin	0.13333333333333	0
bin	0.16666666666667	0
bin	0.2	0
bin	0.23333333333333	0
bin	0.26666666666667	0
bin	0.3	0
bin	0.33333333333333	0
bin	0.36666666666667	0
bin	0.4	0
bin	0.43333333333333	0
bin	0.46666666666667	0
bin	0.5	0
scalar ExamTaskNetwork.FTPLaptop.wlan[0].radio 	radioState:count 	3327308
attr interpolationmode  sample-hold
attr title  "radio state (enum), count"
scalar ExamTaskNetwork.FTPLaptop.wlan[0].radio 	bitrate:min 	54000000
attr interpolationmode  sample-hold
attr title  "tx bitrate, min"
attr unit  bps
scalar ExamTaskNetwork.FTPLaptop.wlan[0].radio 	bitrate:max 	54000000
attr interpolationmode  sample-hold
attr title  "tx bitrate, max"
attr unit  bps
scalar ExamTaskNetwork.FTPLaptop.wlan[0].radio 	bitrate:timeavg 	54000000
attr interpolationmode  sample-hold
attr title  "tx bitrate, timeavg"
attr unit  bps
scalar ExamTaskNetwork.FTPLaptop.tcpApp[0] 	bytesRcvd 	0
scalar ExamTaskNetwork.FTPLaptop.tcpApp[0] 	bytesSent 	2097152000
scalar ExamTaskNetwork.FTPLaptop.tcpApp[0] 	sentPk:count 	1
attr interpolationmode  none
attr source  sentPk
attr title  "packets sent, count"
scalar ExamTaskNetwork.FTPLaptop.tcpApp[0] 	sentPk:sum(packetBytes) 	2097152000
attr interpolationmode  none
attr source  sentPk
attr title  "packets sent, sum(packetBytes)"
scalar ExamTaskNetwork.FTPLaptop.tcpApp[0] 	rcvdPk:count 	0
attr interpolationmode  none
attr source  rcvdPk
attr title  "packets received, count"
scalar ExamTaskNetwork.FTPLaptop.tcpApp[0] 	rcvdPk:sum(packetBytes) 	0
attr interpolationmode  none
attr source  rcvdPk
attr title  "packets received, sum(packetBytes)"
statistic ExamTaskNetwork.FTPLaptop.tcpApp[0] 	endToEndDelay:histogram
field count 0
field mean -nan
field stddev -nan
field sum 0
field sqrsum 0
field min -nan
field max -nan
attr interpolationmode  none
attr source  messageAge(rcvdPk)
attr title  "end-to-end delay, histogram"
attr unit  s
bin	-INF	0
bin	-0.5	0
bin	-0.46666666666667	0
bin	-0.43333333333333	0
bin	-0.4	0
bin	-0.36666666666667	0
bin	-0.33333333333333	0
bin	-0.3	0
bin	-0.26666666666667	0
bin	-0.23333333333333	0
bin	-0.2	0
bin	-0.16666666666667	0
bin	-0.13333333333333	0
bin	-0.1	0
bin	-0.066666666666667	0
bin	-0.033333333333333	0
bin	0	0
bin	0.033333333333333	0
bin	0.066666666666667	0
bin	0.1	0
bin	0.13333333333333	0
bin	0.16666666666667	0
bin	0.2	0
bin	0.23333333333333	0
bin	0.26666666666667	0
bin	0.3	0
bin	0.33333333333333	0
bin	0.36666666666667	0
bin	0.4	0
bin	0.43333333333333	0
bin	0.46666666666667	0
bin	0.5	0
scalar ExamTaskNetwork.BrowsingLaptop[0].networkLayer.arp 	initiatedARPResolution:count 	5
attr title  "ARP initiated resolutions, count"
scalar ExamTaskNetwork.BrowsingLaptop[0].networkLayer.arp 	sentReply:count 	2
attr title  "ARP replies sent, count"
scalar ExamTaskNetwork.BrowsingLaptop[0].networkLayer.arp 	sentReq:count 	5
attr title  "ARP request sent, count"
scalar ExamTaskNetwork.BrowsingLaptop[0].networkLayer.arp 	failedARPResolution:count 	0
attr title  "ARP failed resolutions, count"
scalar ExamTaskNetwork.BrowsingLaptop[0].networkLayer.arp 	completedARPResolution:count 	19
attr title  "ARP completed resolutions, count"
scalar ExamTaskNetwork.BrowsingLaptop[0].lo0.lo 	rcvdPkFromHL:count 	0
attr interpolationmode  none
attr source  packetReceivedFromUpper
attr title  "packets received from higher layer, count"
scalar ExamTaskNetwork.BrowsingLaptop[0].lo0.lo 	rcvdPkFromHL:sum(packetBytes) 	0
attr interpolationmode  none
attr source  packetReceivedFromUpper
attr title  "packets received from higher layer, sum(packetBytes)"
scalar ExamTaskNetwork.BrowsingLaptop[0].lo0.lo 	passedUpPk:count 	0
attr interpolationmode  none
attr source  packetSentToUpper
attr title  "packets passed to higher layer, count"
scalar ExamTaskNetwork.BrowsingLaptop[0].lo0.lo 	passedUpPk:sum(packetBytes) 	0
attr interpolationmode  none
attr source  packetSentToUpper
attr title  "packets passed to higher layer, sum(packetBytes)"
scalar ExamTaskNetwork.BrowsingLaptop[0].lo0.lo 	droppedPkBitError:count 	0
attr interpolationmode  none
attr source  dropPkBitError
attr title  "packets dropped/bit error, count"
scalar ExamTaskNetwork.BrowsingLaptop[0].lo0.lo 	droppedPkBitError:sum(packetBytes) 	0
attr interpolationmode  none
attr source  dropPkBitError
attr title  "packets dropped/bit error, sum(packetBytes)"
scalar ExamTaskNetwork.BrowsingLaptop[0].wlan[0].agent 	dropConfirm:count 	0
attr title  "dropped confirms, count"
scalar ExamTaskNetwork.BrowsingLaptop[0].wlan[0].agent 	acceptConfirm:count 	27
attr title  "accepted confirms, count"
scalar ExamTaskNetwork.BrowsingLaptop[0].wlan[0].agent 	sentRequest:count 	27
attr title  "sent requests, count"
scalar ExamTaskNetwork.BrowsingLaptop[0].wlan[0].mgmt 	dropPkByQueue:count 	0
attr interpolationmode  none
attr source  dropPkByQueue
attr title  "packets dropped by queue, count"
scalar ExamTaskNetwork.BrowsingLaptop[0].wlan[0].mgmt 	dropPkByQueue:sum(packetBytes) 	0
attr interpolationmode  none
attr source  dropPkByQueue
attr title  "packets dropped by queue, sum(packetBytes)"
scalar ExamTaskNetwork.BrowsingLaptop[0].wlan[0].mgmt 	dataQueueLen:max 	4
attr interpolationmode  sample-hold
attr title  "data queue length, max"
scalar ExamTaskNetwork.BrowsingLaptop[0].wlan[0].mgmt 	dataQueueLen:timeavg 	1.9256655514e-05
attr interpolationmode  sample-hold
attr title  "data queue length, timeavg"
scalar ExamTaskNetwork.BrowsingLaptop[0].wlan[0].mac 	"number of received packets" 	18378
scalar ExamTaskNetwork.BrowsingLaptop[0].wlan[0].mac 	"number of collisions" 	24261
scalar ExamTaskNetwork.BrowsingLaptop[0].wlan[0].mac 	"number of internal collisions" 	0
scalar ExamTaskNetwork.BrowsingLaptop[0].wlan[0].mac 	"number of retry for AC 0" 	43
scalar ExamTaskNetwork.BrowsingLaptop[0].wlan[0].mac 	"sent and received bits" 	7069472
scalar ExamTaskNetwork.BrowsingLaptop[0].wlan[0].mac 	"sent packet within AC 0" 	9070
scalar ExamTaskNetwork.BrowsingLaptop[0].wlan[0].mac 	"sent in TXOP " 	0
scalar ExamTaskNetwork.BrowsingLaptop[0].wlan[0].mac 	"sentWithoutRetry AC 0" 	9039
scalar ExamTaskNetwork.BrowsingLaptop[0].wlan[0].mac 	"numGivenUp AC 0" 	0
scalar ExamTaskNetwork.BrowsingLaptop[0].wlan[0].mac 	"numDropped AC 0" 	0
scalar ExamTaskNetwork.BrowsingLaptop[0].wlan[0].mac 	rcvdPkFromHL:count 	9079
attr interpolationmode  none
attr source  packetReceivedFromUpper
attr title  "packets received from higher layer, count"
scalar ExamTaskNetwork.BrowsingLaptop[0].wlan[0].mac 	rcvdPkFromHL:sum(packetBytes) 	883684
attr interpolationmode  none
attr source  packetReceivedFromUpper
attr title  "packets received from higher layer, sum(packetBytes)"
scalar ExamTaskNetwork.BrowsingLaptop[0].wlan[0].mac 	passedUpPk:count 	23059
attr interpolationmode  none
attr source  packetSentToUpper
attr title  "packets passed to higher layer, count"
scalar ExamTaskNetwork.BrowsingLaptop[0].wlan[0].mac 	passedUpPk:sum(packetBytes) 	15370220
attr interpolationmode  none
attr source  packetSentToUpper
attr title  "packets passed to higher layer, sum(packetBytes)"
scalar ExamTaskNetwork.BrowsingLaptop[0].wlan[0].mac 	rcvdPkFromLL:count 	1624382
attr interpolationmode  none
attr source  packetReceivedFromLower
attr title  "packets received from lower layer, count"
scalar ExamTaskNetwork.BrowsingLaptop[0].wlan[0].mac 	rcvdPkFromLL:sum(packetBytes) 	662178964
attr interpolationmode  none
attr source  packetReceivedFromLower
attr title  "packets received from lower layer, sum(packetBytes)"
scalar ExamTaskNetwork.BrowsingLaptop[0].wlan[0].mac 	sentDownPk:count 	27500
attr interpolationmode  none
attr source  packetSentToLower
attr title  "packets sent to lower layer, count"
scalar ExamTaskNetwork.BrowsingLaptop[0].wlan[0].mac 	sentDownPk:sum(packetBytes) 	1159972
attr interpolationmode  none
attr source  packetSentToLower
attr title  "packets sent to lower layer, sum(packetBytes)"
scalar ExamTaskNetwork.BrowsingLaptop[0].wlan[0].radio 	lossRate:min 	0
attr interpolationmode  backward-sample-hold
attr title  "packet loss rate, min"
scalar ExamTaskNetwork.BrowsingLaptop[0].wlan[0].radio 	lossRate:max 	0.16
attr interpolationmode  backward-sample-hold
attr title  "packet loss rate, max"
scalar ExamTaskNetwork.BrowsingLaptop[0].wlan[0].radio 	lossRate:timeavg 	0.013719673733946
attr interpolationmode  backward-sample-hold
attr title  "packet loss rate, timeavg"
statistic ExamTaskNetwork.BrowsingLaptop[0].wlan[0].radio 	channelNo:histogram
field count 1
field mean 0
field stddev -nan
field sum 0
field sqrsum 0
field min 0
field max 0
attr interpolationmode  sample-hold
attr title  "channel no, histogram"
bin	-INF	0
bin	-0.5	0
bin	-0.46666666666667	0
bin	-0.43333333333333	0
bin	-0.4	0
bin	-0.36666666666667	0
bin	-0.33333333333333	0
bin	-0.3	0
bin	-0.26666666666667	0
bin	-0.23333333333333	0
bin	-0.2	0
bin	-0.16666666666667	0
bin	-0.13333333333333	0
bin	-0.1	0
bin	-0.066666666666667	0
bin	-0.033333333333333	0
bin	0	1
bin	0.033333333333333	0
bin	0.066666666666667	0
bin	0.1	0
bin	0.13333333333333	0
bin	0.16666666666667	0
bin	0.2	0
bin	0.23333333333333	0
bin	0.26666666666667	0
bin	0.3	0
bin	0.33333333333333	0
bin	0.36666666666667	0
bin	0.4	0
bin	0.43333333333333	0
bin	0.46666666666667	0
bin	0.5	0
scalar ExamTaskNetwork.BrowsingLaptop[0].wlan[0].radio 	radioState:count 	3303818
attr interpolationmode  sample-hold
attr title  "radio state (enum), count"
scalar ExamTaskNetwork.BrowsingLaptop[0].wlan[0].radio 	bitrate:min 	54000000
attr interpolationmode  sample-hold
attr title  "tx bitrate, min"
attr unit  bps
scalar ExamTaskNetwork.BrowsingLaptop[0].wlan[0].radio 	bitrate:max 	54000000
attr interpolationmode  sample-hold
attr title  "tx bitrate, max"
attr unit  bps
scalar ExamTaskNetwork.BrowsingLaptop[0].wlan[0].radio 	bitrate:timeavg 	54000000
attr interpolationmode  sample-hold
attr title  "tx bitrate, timeavg"
attr unit  bps
scalar ExamTaskNetwork.BrowsingLaptop[0].tcpApp[0] 	numActiveSessions:max 	1
attr interpolationmode  sample-hold
attr source  sum(connect)
attr title  "number of active sessions, max"
scalar ExamTaskNetwork.BrowsingLaptop[0].tcpApp[0] 	numActiveSessions:timeavg 	0.31683549524118
attr interpolationmode  sample-hold
attr source  sum(connect)
attr title  "number of active sessions, timeavg"
scalar ExamTaskNetwork.BrowsingLaptop[0].tcpApp[0] 	numSessions:last 	17
attr source  sum(connect+1)/2
attr title  "total number of sessions, last"
scalar ExamTaskNetwork.BrowsingLaptop[0].tcpApp[0] 	sentPk:count 	17
attr interpolationmode  none
attr source  sentPk
attr title  "packets sent, count"
scalar ExamTaskNetwork.BrowsingLaptop[0].tcpApp[0] 	sentPk:sum(packetBytes) 	139264
attr interpolationmode  none
attr source  sentPk
attr title  "packets sent, sum(packetBytes)"
scalar ExamTaskNetwork.BrowsingLaptop[0].tcpApp[0] 	rcvdPk:count 	17
attr interpolationmode  none
attr source  rcvdPk
attr title  "packets received, count"
scalar ExamTaskNetwork.BrowsingLaptop[0].tcpApp[0] 	rcvdPk:sum(packetBytes) 	12736984
attr interpolationmode  none
attr source  rcvdPk
attr title  "packets received, sum(packetBytes)"
statistic ExamTaskNetwork.BrowsingLaptop[0].tcpApp[0] 	endToEndDelay:histogram
field count 17
field mean 9.0053259255559
field stddev 7.2864848044974
field sum 153.09054073445
field sqrsum 2228.1159883321
field min 0.621500102778
field max 26.05813984593
attr interpolationmode  none
attr source  messageAge(rcvdPk)
attr title  "end-to-end delay, histogram"
attr unit  s
bin	-INF	0
bin	-12.096819768798	0
bin	-10.401043785921	0
bin	-8.7052678030444	0
bin	-7.0094918201676	0
bin	-5.3137158372908	0
bin	-3.617939854414	0
bin	-1.9221638715372	0
bin	-0.2263878886604	2
bin	1.4693880942164	1
bin	3.1651640770932	2
bin	4.86094005997	2
bin	6.5567160428468	3
bin	8.2524920257236	3
bin	9.9482680086004	0
bin	11.644043991477	1
bin	13.339819974354	0
bin	15.035595957231	0
bin	16.731371940108	1
bin	18.427147922984	0
bin	20.122923905861	0
bin	21.818699888738	1
bin	23.514475871615	0
bin	25.210251854492	1
bin	26.906027837368	0
bin	28.601803820245	0
bin	30.297579803122	0
bin	31.993355785999	0
bin	33.689131768876	0
bin	35.384907751752	0
bin	37.080683734629	0
bin	38.776459717506	0
scalar ExamTaskNetwork.BrowsingLaptop[1].networkLayer.arp 	initiatedARPResolution:count 	4
attr title  "ARP initiated resolutions, count"
scalar ExamTaskNetwork.BrowsingLaptop[1].networkLayer.arp 	sentReply:count 	0
attr title  "ARP replies sent, count"
scalar ExamTaskNetwork.BrowsingLaptop[1].networkLayer.arp 	sentReq:count 	4
attr title  "ARP request sent, count"
scalar ExamTaskNetwork.BrowsingLaptop[1].networkLayer.arp 	failedARPResolution:count 	0
attr title  "ARP failed resolutions, count"
scalar ExamTaskNetwork.BrowsingLaptop[1].networkLayer.arp 	completedARPResolution:count 	4
attr title  "ARP completed resolutions, count"
scalar ExamTaskNetwork.BrowsingLaptop[1].lo0.lo 	rcvdPkFromHL:count 	0
attr interpolationmode  none
attr source  packetReceivedFromUpper
attr title  "packets received from higher layer, count"
scalar ExamTaskNetwork.BrowsingLaptop[1].lo0.lo 	rcvdPkFromHL:sum(packetBytes) 	0
attr interpolationmode  none
attr source  packetReceivedFromUpper
attr title  "packets received from higher layer, sum(packetBytes)"
scalar ExamTaskNetwork.BrowsingLaptop[1].lo0.lo 	passedUpPk:count 	0
attr interpolationmode  none
attr source  packetSentToUpper
attr title  "packets passed to higher layer, count"
scalar ExamTaskNetwork.BrowsingLaptop[1].lo0.lo 	passedUpPk:sum(packetBytes) 	0
attr interpolationmode  none
attr source  packetSentToUpper
attr title  "packets passed to higher layer, sum(packetBytes)"
scalar ExamTaskNetwork.BrowsingLaptop[1].lo0.lo 	droppedPkBitError:count 	0
attr interpolationmode  none
attr source  dropPkBitError
attr title  "packets dropped/bit error, count"
scalar ExamTaskNetwork.BrowsingLaptop[1].lo0.lo 	droppedPkBitError:sum(packetBytes) 	0
attr interpolationmode  none
attr source  dropPkBitError
attr title  "packets dropped/bit error, sum(packetBytes)"
scalar ExamTaskNetwork.BrowsingLaptop[1].wlan[0].agent 	dropConfirm:count 	0
attr title  "dropped confirms, count"
scalar ExamTaskNetwork.BrowsingLaptop[1].wlan[0].agent 	acceptConfirm:count 	27
attr title  "accepted confirms, count"
scalar ExamTaskNetwork.BrowsingLaptop[1].wlan[0].agent 	sentRequest:count 	27
attr title  "sent requests, count"
scalar ExamTaskNetwork.BrowsingLaptop[1].wlan[0].mgmt 	dropPkByQueue:count 	38
attr interpolationmode  none
attr source  dropPkByQueue
attr title  "packets dropped by queue, count"
scalar ExamTaskNetwork.BrowsingLaptop[1].wlan[0].mgmt 	dropPkByQueue:sum(packetBytes) 	3724
attr interpolationmode  none
attr source  dropPkByQueue
attr title  "packets dropped by queue, sum(packetBytes)"
scalar ExamTaskNetwork.BrowsingLaptop[1].wlan[0].mgmt 	dataQueueLen:max 	50
attr interpolationmode  sample-hold
attr title  "data queue length, max"
scalar ExamTaskNetwork.BrowsingLaptop[1].wlan[0].mgmt 	dataQueueLen:timeavg 	0.01313336415473
attr interpolationmode  sample-hold
attr title  "data queue length, timeavg"
scalar ExamTaskNetwork.BrowsingLaptop[1].wlan[0].mac 	"number of received packets" 	17866
scalar ExamTaskNetwork.BrowsingLaptop[1].wlan[0].mac 	"number of collisions" 	24164
scalar ExamTaskNetwork.BrowsingLaptop[1].wlan[0].mac 	"number of internal collisions" 	0
scalar ExamTaskNetwork.BrowsingLaptop[1].wlan[0].mac 	"number of retry for AC 0" 	153
scalar ExamTaskNetwork.BrowsingLaptop[1].wlan[0].mac 	"sent and received bits" 	7430576
scalar ExamTaskNetwork.BrowsingLaptop[1].wlan[0].mac 	"sent packet within AC 0" 	9165
scalar ExamTaskNetwork.BrowsingLaptop[1].wlan[0].mac 	"sent in TXOP " 	0
scalar ExamTaskNetwork.BrowsingLaptop[1].wlan[0].mac 	"sentWithoutRetry AC 0" 	9046
scalar ExamTaskNetwork.BrowsingLaptop[1].wlan[0].mac 	"numGivenUp AC 0" 	0
scalar ExamTaskNetwork.BrowsingLaptop[1].wlan[0].mac 	"numDropped AC 0" 	0
scalar ExamTaskNetwork.BrowsingLaptop[1].wlan[0].mac 	rcvdPkFromHL:count 	9174
attr interpolationmode  none
attr source  packetReceivedFromUpper
attr title  "packets received from higher layer, count"
scalar ExamTaskNetwork.BrowsingLaptop[1].wlan[0].mac 	rcvdPkFromHL:sum(packetBytes) 	928822
attr interpolationmode  none
attr source  packetReceivedFromUpper
attr title  "packets received from higher layer, sum(packetBytes)"
scalar ExamTaskNetwork.BrowsingLaptop[1].wlan[0].mac 	passedUpPk:count 	22548
attr interpolationmode  none
attr source  packetSentToUpper
attr title  "packets passed to higher layer, count"
scalar ExamTaskNetwork.BrowsingLaptop[1].wlan[0].mac 	passedUpPk:sum(packetBytes) 	14885922
attr interpolationmode  none
attr source  packetSentToUpper
attr title  "packets passed to higher layer, sum(packetBytes)"
scalar ExamTaskNetwork.BrowsingLaptop[1].wlan[0].mac 	rcvdPkFromLL:count 	1624689
attr interpolationmode  none
attr source  packetReceivedFromLower
attr title  "packets received from lower layer, count"
scalar ExamTaskNetwork.BrowsingLaptop[1].wlan[0].mac 	rcvdPkFromLL:sum(packetBytes) 	662039634
attr interpolationmode  none
attr source  packetReceivedFromLower
attr title  "packets received from lower layer, sum(packetBytes)"
scalar ExamTaskNetwork.BrowsingLaptop[1].wlan[0].mac 	sentDownPk:count 	27193
attr interpolationmode  none
attr source  packetSentToLower
attr title  "packets sent to lower layer, count"
scalar ExamTaskNetwork.BrowsingLaptop[1].wlan[0].mac 	sentDownPk:sum(packetBytes) 	1231482
attr interpolationmode  none
attr source  packetSentToLower
attr title  "packets sent to lower layer, sum(packetBytes)"
scalar ExamTaskNetwork.BrowsingLaptop[1].wlan[0].radio 	lossRate:min 	0
attr interpolationmode  backward-sample-hold
attr title  "packet loss rate, min"
scalar ExamTaskNetwork.BrowsingLaptop[1].wlan[0].radio 	lossRate:max 	0.14
attr interpolationmode  backward-sample-hold
attr title  "packet loss rate, max"
scalar ExamTaskNetwork.BrowsingLaptop[1].wlan[0].radio 	lossRate:timeavg 	0.013632567909611
attr interpolationmode  backward-sample-hold
attr title  "packet loss rate, timeavg"
statistic ExamTaskNetwork.BrowsingLaptop[1].wlan[0].radio 	channelNo:histogram
field count 1
field mean 0
field stddev -nan
field sum 0
field sqrsum 0
field min 0
field max 0
attr interpolationmode  sample-hold
attr title  "channel no, histogram"
bin	-INF	0
bin	-0.5	0
bin	-0.46666666666667	0
bin	-0.43333333333333	0
bin	-0.4	0
bin	-0.36666666666667	0
bin	-0.33333333333333	0
bin	-0.3	0
bin	-0.26666666666667	0
bin	-0.23333333333333	0
bin	-0.2	0
bin	-0.16666666666667	0
bin	-0.13333333333333	0
bin	-0.1	0
bin	-0.066666666666667	0
bin	-0.033333333333333	0
bin	0	1
bin	0.033333333333333	0
bin	0.066666666666667	0
bin	0.1	0
bin	0.13333333333333	0
bin	0.16666666666667	0
bin	0.2	0
bin	0.23333333333333	0
bin	0.26666666666667	0
bin	0.3	0
bin	0.33333333333333	0
bin	0.36666666666667	0
bin	0.4	0
bin	0.43333333333333	0
bin	0.46666666666667	0
bin	0.5	0
scalar ExamTaskNetwork.BrowsingLaptop[1].wlan[0].radio 	radioState:count 	3303937
attr interpolationmode  sample-hold
attr title  "radio state (enum), count"
scalar ExamTaskNetwork.BrowsingLaptop[1].wlan[0].radio 	bitrate:min 	54000000
attr interpolationmode  sample-hold
attr title  "tx bitrate, min"
attr unit  bps
scalar ExamTaskNetwork.BrowsingLaptop[1].wlan[0].radio 	bitrate:max 	54000000
attr interpolationmode  sample-hold
attr title  "tx bitrate, max"
attr unit  bps
scalar ExamTaskNetwork.BrowsingLaptop[1].wlan[0].radio 	bitrate:timeavg 	54000000
attr interpolationmode  sample-hold
attr title  "tx bitrate, timeavg"
attr unit  bps
scalar ExamTaskNetwork.BrowsingLaptop[1].tcpApp[0] 	numActiveSessions:max 	1
attr interpolationmode  sample-hold
attr source  sum(connect)
attr title  "number of active sessions, max"
scalar ExamTaskNetwork.BrowsingLaptop[1].tcpApp[0] 	numActiveSessions:timeavg 	0.29498018915413
attr interpolationmode  sample-hold
attr source  sum(connect)
attr title  "number of active sessions, timeavg"
scalar ExamTaskNetwork.BrowsingLaptop[1].tcpApp[0] 	numSessions:last 	21
attr source  sum(connect+1)/2
attr title  "total number of sessions, last"
scalar ExamTaskNetwork.BrowsingLaptop[1].tcpApp[0] 	sentPk:count 	21
attr interpolationmode  none
attr source  sentPk
attr title  "packets sent, count"
scalar ExamTaskNetwork.BrowsingLaptop[1].tcpApp[0] 	sentPk:sum(packetBytes) 	172032
attr interpolationmode  none
attr source  sentPk
attr title  "packets sent, sum(packetBytes)"
scalar ExamTaskNetwork.BrowsingLaptop[1].tcpApp[0] 	rcvdPk:count 	21
attr interpolationmode  none
attr source  rcvdPk
attr title  "packets received, count"
scalar ExamTaskNetwork.BrowsingLaptop[1].tcpApp[0] 	rcvdPk:sum(packetBytes) 	12051524
attr interpolationmode  none
attr source  rcvdPk
attr title  "packets received, sum(packetBytes)"
statistic ExamTaskNetwork.BrowsingLaptop[1].tcpApp[0] 	endToEndDelay:histogram
field count 21
field mean 6.8917957518923
field stddev 4.7409549427786
field sum 144.72771078974
field sqrsum 1446.966897791
field min 0.304446218282
field max 20.551838561413
attr interpolationmode  none
attr source  messageAge(rcvdPk)
attr title  "end-to-end delay, histogram"
attr unit  s
bin	-INF	0
bin	-9.8192499532835	0
bin	-8.4694237970748	0
bin	-7.119597640866	0
bin	-5.7697714846573	0
bin	-4.4199453284486	0
bin	-3.0701191722398	0
bin	-1.7202930160311	0
bin	-0.37046685982237	3
bin	0.97935929638637	1
bin	2.3291854525951	1
bin	3.6790116088038	2
bin	5.0288377650126	4
bin	6.3786639212213	0
bin	7.72849007743	3
bin	9.0783162336388	5
bin	10.428142389847	0
bin	11.777968546056	1
bin	13.127794702265	0
bin	14.477620858474	0
bin	15.827447014682	0
bin	17.177273170891	0
bin	18.5270993271	0
bin	19.876925483309	1
bin	21.226751639517	0
bin	22.576577795726	0
bin	23.926403951935	0
bin	25.276230108144	0
bin	26.626056264352	0
bin	27.975882420561	0
bin	29.32570857677	0
bin	30.675534732978	0
scalar ExamTaskNetwork.BrowsingLaptop[2].networkLayer.arp 	initiatedARPResolution:count 	4
attr title  "ARP initiated resolutions, count"
scalar ExamTaskNetwork.BrowsingLaptop[2].networkLayer.arp 	sentReply:count 	1
attr title  "ARP replies sent, count"
scalar ExamTaskNetwork.BrowsingLaptop[2].networkLayer.arp 	sentReq:count 	4
attr title  "ARP request sent, count"
scalar ExamTaskNetwork.BrowsingLaptop[2].networkLayer.arp 	failedARPResolution:count 	0
attr title  "ARP failed resolutions, count"
scalar ExamTaskNetwork.BrowsingLaptop[2].networkLayer.arp 	completedARPResolution:count 	9
attr title  "ARP completed resolutions, count"
scalar ExamTaskNetwork.BrowsingLaptop[2].lo0.lo 	rcvdPkFromHL:count 	0
attr interpolationmode  none
attr source  packetReceivedFromUpper
attr title  "packets received from higher layer, count"
scalar ExamTaskNetwork.BrowsingLaptop[2].lo0.lo 	rcvdPkFromHL:sum(packetBytes) 	0
attr interpolationmode  none
attr source  packetReceivedFromUpper
attr title  "packets received from higher layer, sum(packetBytes)"
scalar ExamTaskNetwork.BrowsingLaptop[2].lo0.lo 	passedUpPk:count 	0
attr interpolationmode  none
attr source  packetSentToUpper
attr title  "packets passed to higher layer, count"
scalar ExamTaskNetwork.BrowsingLaptop[2].lo0.lo 	passedUpPk:sum(packetBytes) 	0
attr interpolationmode  none
attr source  packetSentToUpper
attr title  "packets passed to higher layer, sum(packetBytes)"
scalar ExamTaskNetwork.BrowsingLaptop[2].lo0.lo 	droppedPkBitError:count 	0
attr interpolationmode  none
attr source  dropPkBitError
attr title  "packets dropped/bit error, count"
scalar ExamTaskNetwork.BrowsingLaptop[2].lo0.lo 	droppedPkBitError:sum(packetBytes) 	0
attr interpolationmode  none
attr source  dropPkBitError
attr title  "packets dropped/bit error, sum(packetBytes)"
scalar ExamTaskNetwork.BrowsingLaptop[2].wlan[0].agent 	dropConfirm:count 	0
attr title  "dropped confirms, count"
scalar ExamTaskNetwork.BrowsingLaptop[2].wlan[0].agent 	acceptConfirm:count 	27
attr title  "accepted confirms, count"
scalar ExamTaskNetwork.BrowsingLaptop[2].wlan[0].agent 	sentRequest:count 	27
attr title  "sent requests, count"
scalar ExamTaskNetwork.BrowsingLaptop[2].wlan[0].mgmt 	dropPkByQueue:count 	0
attr interpolationmode  none
attr source  dropPkByQueue
attr title  "packets dropped by queue, count"
scalar ExamTaskNetwork.BrowsingLaptop[2].wlan[0].mgmt 	dropPkByQueue:sum(packetBytes) 	0
attr interpolationmode  none
attr source  dropPkByQueue
attr title  "packets dropped by queue, sum(packetBytes)"
scalar ExamTaskNetwork.BrowsingLaptop[2].wlan[0].mgmt 	dataQueueLen:max 	0
attr interpolationmode  sample-hold
attr title  "data queue length, max"
scalar ExamTaskNetwork.BrowsingLaptop[2].wlan[0].mgmt 	dataQueueLen:timeavg 	0
attr interpolationmode  sample-hold
attr title  "data queue length, timeavg"
scalar ExamTaskNetwork.BrowsingLaptop[2].wlan[0].mac 	"number of received packets" 	20579
scalar ExamTaskNetwork.BrowsingLaptop[2].wlan[0].mac 	"number of collisions" 	24251
scalar ExamTaskNetwork.BrowsingLaptop[2].wlan[0].mac 	"number of internal collisions" 	0
scalar ExamTaskNetwork.BrowsingLaptop[2].wlan[0].mac 	"number of retry for AC 0" 	63
scalar ExamTaskNetwork.BrowsingLaptop[2].wlan[0].mac 	"sent and received bits" 	7781440
scalar ExamTaskNetwork.BrowsingLaptop[2].wlan[0].mac 	"sent packet within AC 0" 	9973
scalar ExamTaskNetwork.BrowsingLaptop[2].wlan[0].mac 	"sent in TXOP " 	0
scalar ExamTaskNetwork.BrowsingLaptop[2].wlan[0].mac 	"sentWithoutRetry AC 0" 	9935
scalar ExamTaskNetwork.BrowsingLaptop[2].wlan[0].mac 	"numGivenUp AC 0" 	0
scalar ExamTaskNetwork.BrowsingLaptop[2].wlan[0].mac 	"numDropped AC 0" 	0
scalar ExamTaskNetwork.BrowsingLaptop[2].wlan[0].mac 	rcvdPkFromHL:count 	9982
attr interpolationmode  none
attr source  packetReceivedFromUpper
attr title  "packets received from higher layer, count"
scalar ExamTaskNetwork.BrowsingLaptop[2].wlan[0].mac 	rcvdPkFromHL:sum(packetBytes) 	972680
attr interpolationmode  none
attr source  packetReceivedFromUpper
attr title  "packets received from higher layer, sum(packetBytes)"
scalar ExamTaskNetwork.BrowsingLaptop[2].wlan[0].mac 	passedUpPk:count 	25263
attr interpolationmode  none
attr source  packetSentToUpper
attr title  "packets passed to higher layer, count"
scalar ExamTaskNetwork.BrowsingLaptop[2].wlan[0].mac 	passedUpPk:sum(packetBytes) 	17440601
attr interpolationmode  none
attr source  packetSentToUpper
attr title  "packets passed to higher layer, sum(packetBytes)"
scalar ExamTaskNetwork.BrowsingLaptop[2].wlan[0].mac 	rcvdPkFromLL:count 	1621258
attr interpolationmode  none
attr source  packetReceivedFromLower
attr title  "packets received from lower layer, count"
scalar ExamTaskNetwork.BrowsingLaptop[2].wlan[0].mac 	rcvdPkFromLL:sum(packetBytes) 	661976484
attr interpolationmode  none
attr source  packetReceivedFromLower
attr title  "packets received from lower layer, sum(packetBytes)"
scalar ExamTaskNetwork.BrowsingLaptop[2].wlan[0].mac 	sentDownPk:count 	30624
attr interpolationmode  none
attr source  packetSentToLower
attr title  "packets sent to lower layer, count"
scalar ExamTaskNetwork.BrowsingLaptop[2].wlan[0].mac 	sentDownPk:sum(packetBytes) 	1305396
attr interpolationmode  none
attr source  packetSentToLower
attr title  "packets sent to lower layer, sum(packetBytes)"
scalar ExamTaskNetwork.BrowsingLaptop[2].wlan[0].radio 	lossRate:min 	0
attr interpolationmode  backward-sample-hold
attr title  "packet loss rate, min"
scalar ExamTaskNetwork.BrowsingLaptop[2].wlan[0].radio 	lossRate:max 	0.12
attr interpolationmode  backward-sample-hold
attr title  "packet loss rate, max"
scalar ExamTaskNetwork.BrowsingLaptop[2].wlan[0].radio 	lossRate:timeavg 	0.013660906170751
attr interpolationmode  backward-sample-hold
attr title  "packet loss rate, timeavg"
statistic ExamTaskNetwork.BrowsingLaptop[2].wlan[0].radio 	channelNo:histogram
field count 1
field mean 0
field stddev -nan
field sum 0
field sqrsum 0
field min 0
field max 0
attr interpolationmode  sample-hold
attr title  "channel no, histogram"
bin	-INF	0
bin	-0.5	0
bin	-0.46666666666667	0
bin	-0.43333333333333	0
bin	-0.4	0
bin	-0.36666666666667	0
bin	-0.33333333333333	0
bin	-0.3	0
bin	-0.26666666666667	0
bin	-0.23333333333333	0
bin	-0.2	0
bin	-0.16666666666667	0
bin	-0.13333333333333	0
bin	-0.1	0
bin	-0.066666666666667	0
bin	-0.033333333333333	0
bin	0	1
bin	0.033333333333333	0
bin	0.066666666666667	0
bin	0.1	0
bin	0.13333333333333	0
bin	0.16666666666667	0
bin	0.2	0
bin	0.23333333333333	0
bin	0.26666666666667	0
bin	0.3	0
bin	0.33333333333333	0
bin	0.36666666666667	0
bin	0.4	0
bin	0.43333333333333	0
bin	0.46666666666667	0
bin	0.5	0
scalar ExamTaskNetwork.BrowsingLaptop[2].wlan[0].radio 	radioState:count 	3303837
attr interpolationmode  sample-hold
attr title  "radio state (enum), count"
scalar ExamTaskNetwork.BrowsingLaptop[2].wlan[0].radio 	bitrate:min 	54000000
attr interpolationmode  sample-hold
attr title  "tx bitrate, min"
attr unit  bps
scalar ExamTaskNetwork.BrowsingLaptop[2].wlan[0].radio 	bitrate:max 	54000000
attr interpolationmode  sample-hold
attr title  "tx bitrate, max"
attr unit  bps
scalar ExamTaskNetwork.BrowsingLaptop[2].wlan[0].radio 	bitrate:timeavg 	54000000
attr interpolationmode  sample-hold
attr title  "tx bitrate, timeavg"
attr unit  bps
scalar ExamTaskNetwork.BrowsingLaptop[2].tcpApp[0] 	numActiveSessions:max 	1
attr interpolationmode  sample-hold
attr source  sum(connect)
attr title  "number of active sessions, max"
scalar ExamTaskNetwork.BrowsingLaptop[2].tcpApp[0] 	numActiveSessions:timeavg 	0.36620503106691
attr interpolationmode  sample-hold
attr source  sum(connect)
attr title  "number of active sessions, timeavg"
scalar ExamTaskNetwork.BrowsingLaptop[2].tcpApp[0] 	numSessions:last 	19
attr source  sum(connect+1)/2
attr title  "total number of sessions, last"
scalar ExamTaskNetwork.BrowsingLaptop[2].tcpApp[0] 	sentPk:count 	19
attr interpolationmode  none
attr source  sentPk
attr title  "packets sent, count"
scalar ExamTaskNetwork.BrowsingLaptop[2].tcpApp[0] 	sentPk:sum(packetBytes) 	155648
attr interpolationmode  none
attr source  sentPk
attr title  "packets sent, sum(packetBytes)"
scalar ExamTaskNetwork.BrowsingLaptop[2].tcpApp[0] 	rcvdPk:count 	19
attr interpolationmode  none
attr source  rcvdPk
attr title  "packets received, count"
scalar ExamTaskNetwork.BrowsingLaptop[2].tcpApp[0] 	rcvdPk:sum(packetBytes) 	13208653
attr interpolationmode  none
attr source  rcvdPk
attr title  "packets received, sum(packetBytes)"
statistic ExamTaskNetwork.BrowsingLaptop[2].tcpApp[0] 	endToEndDelay:histogram
field count 19
field mean 9.5104373361382
field stddev 7.9096611695041
field sum 180.69830938663
field sqrsum 2844.6492648621
field min 0.835453813442
field max 32.719018571316
attr interpolationmode  none
attr source  messageAge(rcvdPk)
attr title  "end-to-end delay, histogram"
attr unit  s
bin	-INF	0
bin	-15.106328565495	0
bin	-12.980757581637	0
bin	-10.855186597778	0
bin	-8.7296156139202	0
bin	-6.6040446300619	0
bin	-4.4784736462037	0
bin	-2.3529026623454	0
bin	-0.22733167848713	1
bin	1.8982393053711	5
bin	4.0238102892294	2
bin	6.1493812730877	2
bin	8.2749522569459	4
bin	10.400523240804	1
bin	12.526094224662	0
bin	14.651665208521	1
bin	16.777236192379	1
bin	18.902807176237	0
bin	21.028378160096	1
bin	23.153949143954	0
bin	25.279520127812	0
bin	27.40509111167	0
bin	29.530662095529	0
bin	31.656233079387	1
bin	33.781804063245	0
bin	35.907375047103	0
bin	38.032946030962	0
bin	40.15851701482	0
bin	42.284087998678	0
bin	44.409658982536	0
bin	46.535229966395	0
bin	48.660800950253	0
scalar ExamTaskNetwork.BrowsingLaptop[3].networkLayer.arp 	initiatedARPResolution:count 	5
attr title  "ARP initiated resolutions, count"
scalar ExamTaskNetwork.BrowsingLaptop[3].networkLayer.arp 	sentReply:count 	2
attr title  "ARP replies sent, count"
scalar ExamTaskNetwork.BrowsingLaptop[3].networkLayer.arp 	sentReq:count 	5
attr title  "ARP request sent, count"
scalar ExamTaskNetwork.BrowsingLaptop[3].networkLayer.arp 	failedARPResolution:count 	0
attr title  "ARP failed resolutions, count"
scalar ExamTaskNetwork.BrowsingLaptop[3].networkLayer.arp 	completedARPResolution:count 	13
attr title  "ARP completed resolutions, count"
scalar ExamTaskNetwork.BrowsingLaptop[3].lo0.lo 	rcvdPkFromHL:count 	0
attr interpolationmode  none
attr source  packetReceivedFromUpper
attr title  "packets received from higher layer, count"
scalar ExamTaskNetwork.BrowsingLaptop[3].lo0.lo 	rcvdPkFromHL:sum(packetBytes) 	0
attr interpolationmode  none
attr source  packetReceivedFromUpper
attr title  "packets received from higher layer, sum(packetBytes)"
scalar ExamTaskNetwork.BrowsingLaptop[3].lo0.lo 	passedUpPk:count 	0
attr interpolationmode  none
attr source  packetSentToUpper
attr title  "packets passed to higher layer, count"
scalar ExamTaskNetwork.BrowsingLaptop[3].lo0.lo 	passedUpPk:sum(packetBytes) 	0
attr interpolationmode  none
attr source  packetSentToUpper
attr title  "packets passed to higher layer, sum(packetBytes)"
scalar ExamTaskNetwork.BrowsingLaptop[3].lo0.lo 	droppedPkBitError:count 	0
attr interpolationmode  none
attr source  dropPkBitError
attr title  "packets dropped/bit error, count"
scalar ExamTaskNetwork.BrowsingLaptop[3].lo0.lo 	droppedPkBitError:sum(packetBytes) 	0
attr interpolationmode  none
attr source  dropPkBitError
attr title  "packets dropped/bit error, sum(packetBytes)"
scalar ExamTaskNetwork.BrowsingLaptop[3].wlan[0].agent 	dropConfirm:count 	0
attr title  "dropped confirms, count"
scalar ExamTaskNetwork.BrowsingLaptop[3].wlan[0].agent 	acceptConfirm:count 	27
attr title  "accepted confirms, count"
scalar ExamTaskNetwork.BrowsingLaptop[3].wlan[0].agent 	sentRequest:count 	27
attr title  "sent requests, count"
scalar ExamTaskNetwork.BrowsingLaptop[3].wlan[0].mgmt 	dropPkByQueue:count 	282
attr interpolationmode  none
attr source  dropPkByQueue
attr title  "packets dropped by queue, count"
scalar ExamTaskNetwork.BrowsingLaptop[3].wlan[0].mgmt 	dropPkByQueue:sum(packetBytes) 	27616
attr interpolationmode  none
attr source  dropPkByQueue
attr title  "packets dropped by queue, sum(packetBytes)"
scalar ExamTaskNetwork.BrowsingLaptop[3].wlan[0].mgmt 	dataQueueLen:max 	50
attr interpolationmode  sample-hold
attr title  "data queue length, max"
scalar ExamTaskNetwork.BrowsingLaptop[3].wlan[0].mgmt 	dataQueueLen:timeavg 	0.019395316282148
attr interpolationmode  sample-hold
attr title  "data queue length, timeavg"
scalar ExamTaskNetwork.BrowsingLaptop[3].wlan[0].mac 	"number of received packets" 	18387
scalar ExamTaskNetwork.BrowsingLaptop[3].wlan[0].mac 	"number of collisions" 	24166
scalar ExamTaskNetwork.BrowsingLaptop[3].wlan[0].mac 	"number of internal collisions" 	0
scalar ExamTaskNetwork.BrowsingLaptop[3].wlan[0].mac 	"number of retry for AC 0" 	161
scalar ExamTaskNetwork.BrowsingLaptop[3].wlan[0].mac 	"sent and received bits" 	7509040
scalar ExamTaskNetwork.BrowsingLaptop[3].wlan[0].mac 	"sent packet within AC 0" 	9374
scalar ExamTaskNetwork.BrowsingLaptop[3].wlan[0].mac 	"sent in TXOP " 	0
scalar ExamTaskNetwork.BrowsingLaptop[3].wlan[0].mac 	"sentWithoutRetry AC 0" 	9251
scalar ExamTaskNetwork.BrowsingLaptop[3].wlan[0].mac 	"numGivenUp AC 0" 	0
scalar ExamTaskNetwork.BrowsingLaptop[3].wlan[0].mac 	"numDropped AC 0" 	0
scalar ExamTaskNetwork.BrowsingLaptop[3].wlan[0].mac 	rcvdPkFromHL:count 	9383
attr interpolationmode  none
attr source  packetReceivedFromUpper
attr title  "packets received from higher layer, count"
scalar ExamTaskNetwork.BrowsingLaptop[3].wlan[0].mac 	rcvdPkFromHL:sum(packetBytes) 	938630
attr interpolationmode  none
attr source  packetReceivedFromUpper
attr title  "packets received from higher layer, sum(packetBytes)"
scalar ExamTaskNetwork.BrowsingLaptop[3].wlan[0].mac 	passedUpPk:count 	23067
attr interpolationmode  none
attr source  packetSentToUpper
attr title  "packets passed to higher layer, count"
scalar ExamTaskNetwork.BrowsingLaptop[3].wlan[0].mac 	passedUpPk:sum(packetBytes) 	15529850
attr interpolationmode  none
attr source  packetSentToUpper
attr title  "packets passed to higher layer, sum(packetBytes)"
scalar ExamTaskNetwork.BrowsingLaptop[3].wlan[0].mac 	rcvdPkFromLL:count 	1623951
attr interpolationmode  none
attr source  packetReceivedFromLower
attr title  "packets received from lower layer, count"
scalar ExamTaskNetwork.BrowsingLaptop[3].wlan[0].mac 	rcvdPkFromLL:sum(packetBytes) 	662044408
attr interpolationmode  none
attr source  packetReceivedFromLower
attr title  "packets received from lower layer, sum(packetBytes)"
scalar ExamTaskNetwork.BrowsingLaptop[3].wlan[0].mac 	sentDownPk:count 	27931
attr interpolationmode  none
attr source  packetSentToLower
attr title  "packets sent to lower layer, count"
scalar ExamTaskNetwork.BrowsingLaptop[3].wlan[0].mac 	sentDownPk:sum(packetBytes) 	1228442
attr interpolationmode  none
attr source  packetSentToLower
attr title  "packets sent to lower layer, sum(packetBytes)"
scalar ExamTaskNetwork.BrowsingLaptop[3].wlan[0].radio 	lossRate:min 	0
attr interpolationmode  backward-sample-hold
attr title  "packet loss rate, min"
scalar ExamTaskNetwork.BrowsingLaptop[3].wlan[0].radio 	lossRate:max 	0.14
attr interpolationmode  backward-sample-hold
attr title  "packet loss rate, max"
scalar ExamTaskNetwork.BrowsingLaptop[3].wlan[0].radio 	lossRate:timeavg 	0.013624433510173
attr interpolationmode  backward-sample-hold
attr title  "packet loss rate, timeavg"
statistic ExamTaskNetwork.BrowsingLaptop[3].wlan[0].radio 	channelNo:histogram
field count 1
field mean 0
field stddev -nan
field sum 0
field sqrsum 0
field min 0
field max 0
attr interpolationmode  sample-hold
attr title  "channel no, histogram"
bin	-INF	0
bin	-0.5	0
bin	-0.46666666666667	0
bin	-0.43333333333333	0
bin	-0.4	0
bin	-0.36666666666667	0
bin	-0.33333333333333	0
bin	-0.3	0
bin	-0.26666666666667	0
bin	-0.23333333333333	0
bin	-0.2	0
bin	-0.16666666666667	0
bin	-0.13333333333333	0
bin	-0.1	0
bin	-0.066666666666667	0
bin	-0.033333333333333	0
bin	0	1
bin	0.033333333333333	0
bin	0.066666666666667	0
bin	0.1	0
bin	0.13333333333333	0
bin	0.16666666666667	0
bin	0.2	0
bin	0.23333333333333	0
bin	0.26666666666667	0
bin	0.3	0
bin	0.33333333333333	0
bin	0.36666666666667	0
bin	0.4	0
bin	0.43333333333333	0
bin	0.46666666666667	0
bin	0.5	0
scalar ExamTaskNetwork.BrowsingLaptop[3].wlan[0].radio 	radioState:count 	3303952
attr interpolationmode  sample-hold
attr title  "radio state (enum), count"
scalar ExamTaskNetwork.BrowsingLaptop[3].wlan[0].radio 	bitrate:min 	54000000
attr interpolationmode  sample-hold
attr title  "tx bitrate, min"
attr unit  bps
scalar ExamTaskNetwork.BrowsingLaptop[3].wlan[0].radio 	bitrate:max 	54000000
attr interpolationmode  sample-hold
attr title  "tx bitrate, max"
attr unit  bps
scalar ExamTaskNetwork.BrowsingLaptop[3].wlan[0].radio 	bitrate:timeavg 	54000000
attr interpolationmode  sample-hold
attr title  "tx bitrate, timeavg"
attr unit  bps
scalar ExamTaskNetwork.BrowsingLaptop[3].tcpApp[0] 	numActiveSessions:max 	1
attr interpolationmode  sample-hold
attr source  sum(connect)
attr title  "number of active sessions, max"
scalar ExamTaskNetwork.BrowsingLaptop[3].tcpApp[0] 	numActiveSessions:timeavg 	0.36284483127735
attr interpolationmode  sample-hold
attr source  sum(connect)
attr title  "number of active sessions, timeavg"
scalar ExamTaskNetwork.BrowsingLaptop[3].tcpApp[0] 	numSessions:last 	20
attr source  sum(connect+1)/2
attr title  "total number of sessions, last"
scalar ExamTaskNetwork.BrowsingLaptop[3].tcpApp[0] 	sentPk:count 	20
attr interpolationmode  none
attr source  sentPk
attr title  "packets sent, count"
scalar ExamTaskNetwork.BrowsingLaptop[3].tcpApp[0] 	sentPk:sum(packetBytes) 	163840
attr interpolationmode  none
attr source  sentPk
attr title  "packets sent, sum(packetBytes)"
scalar ExamTaskNetwork.BrowsingLaptop[3].tcpApp[0] 	rcvdPk:count 	20
attr interpolationmode  none
attr source  rcvdPk
attr title  "packets received, count"
scalar ExamTaskNetwork.BrowsingLaptop[3].tcpApp[0] 	rcvdPk:sum(packetBytes) 	12186295
attr interpolationmode  none
attr source  rcvdPk
attr title  "packets received, sum(packetBytes)"
statistic ExamTaskNetwork.BrowsingLaptop[3].tcpApp[0] 	endToEndDelay:histogram
field count 20
field mean 8.7890329395661
field stddev 6.89748815036
field sum 175.78065879132
field sqrsum 2448.8735131583
field min 0.710734279627
field max 29.542630218278
attr interpolationmode  none
attr source  messageAge(rcvdPk)
attr title  "end-to-end delay, histogram"
attr unit  s
bin	-INF	0
bin	-13.705213689698	0
bin	-11.783087293788	0
bin	-9.8609608978784	0
bin	-7.9388345019683	0
bin	-6.0167081060582	0
bin	-4.0945817101482	0
bin	-2.1724553142381	0
bin	-0.25032891832803	2
bin	1.671797477582	1
bin	3.5939238734921	5
bin	5.5160502694022	3
bin	7.4381766653122	1
bin	9.3603030612223	2
bin	11.282429457132	1
bin	13.204555853042	2
bin	15.126682248953	1
bin	17.048808644863	1
bin	18.970935040773	0
bin	20.893061436683	0
bin	22.815187832593	0
bin	24.737314228503	0
bin	26.659440624413	0
bin	28.581567020323	1
bin	30.503693416233	0
bin	32.425819812143	0
bin	34.347946208053	0
bin	36.270072603963	0
bin	38.192198999873	0
bin	40.114325395783	0
bin	42.036451791693	0
bin	43.958578187603	0
scalar ExamTaskNetwork.BrowsingLaptop[4].networkLayer.arp 	initiatedARPResolution:count 	4
attr title  "ARP initiated resolutions, count"
scalar ExamTaskNetwork.BrowsingLaptop[4].networkLayer.arp 	sentReply:count 	0
attr title  "ARP replies sent, count"
scalar ExamTaskNetwork.BrowsingLaptop[4].networkLayer.arp 	sentReq:count 	4
attr title  "ARP request sent, count"
scalar ExamTaskNetwork.BrowsingLaptop[4].networkLayer.arp 	failedARPResolution:count 	0
attr title  "ARP failed resolutions, count"
scalar ExamTaskNetwork.BrowsingLaptop[4].networkLayer.arp 	completedARPResolution:count 	4
attr title  "ARP completed resolutions, count"
scalar ExamTaskNetwork.BrowsingLaptop[4].lo0.lo 	rcvdPkFromHL:count 	0
attr interpolationmode  none
attr source  packetReceivedFromUpper
attr title  "packets received from higher layer, count"
scalar ExamTaskNetwork.BrowsingLaptop[4].lo0.lo 	rcvdPkFromHL:sum(packetBytes) 	0
attr interpolationmode  none
attr source  packetReceivedFromUpper
attr title  "packets received from higher layer, sum(packetBytes)"
scalar ExamTaskNetwork.BrowsingLaptop[4].lo0.lo 	passedUpPk:count 	0
attr interpolationmode  none
attr source  packetSentToUpper
attr title  "packets passed to higher layer, count"
scalar ExamTaskNetwork.BrowsingLaptop[4].lo0.lo 	passedUpPk:sum(packetBytes) 	0
attr interpolationmode  none
attr source  packetSentToUpper
attr title  "packets passed to higher layer, sum(packetBytes)"
scalar ExamTaskNetwork.BrowsingLaptop[4].lo0.lo 	droppedPkBitError:count 	0
attr interpolationmode  none
attr source  dropPkBitError
attr title  "packets dropped/bit error, count"
scalar ExamTaskNetwork.BrowsingLaptop[4].lo0.lo 	droppedPkBitError:sum(packetBytes) 	0
attr interpolationmode  none
attr source  dropPkBitError
attr title  "packets dropped/bit error, sum(packetBytes)"
scalar ExamTaskNetwork.BrowsingLaptop[4].wlan[0].agent 	dropConfirm:count 	0
attr title  "dropped confirms, count"
scalar ExamTaskNetwork.BrowsingLaptop[4].wlan[0].agent 	acceptConfirm:count 	27
attr title  "accepted confirms, count"
scalar ExamTaskNetwork.BrowsingLaptop[4].wlan[0].agent 	sentRequest:count 	27
attr title  "sent requests, count"
scalar ExamTaskNetwork.BrowsingLaptop[4].wlan[0].mgmt 	dropPkByQueue:count 	0
attr interpolationmode  none
attr source  dropPkByQueue
attr title  "packets dropped by queue, count"
scalar ExamTaskNetwork.BrowsingLaptop[4].wlan[0].mgmt 	dropPkByQueue:sum(packetBytes) 	0
attr interpolationmode  none
attr source  dropPkByQueue
attr title  "packets dropped by queue, sum(packetBytes)"
scalar ExamTaskNetwork.BrowsingLaptop[4].wlan[0].mgmt 	dataQueueLen:max 	0
attr interpolationmode  sample-hold
attr title  "data queue length, max"
scalar ExamTaskNetwork.BrowsingLaptop[4].wlan[0].mgmt 	dataQueueLen:timeavg 	0
attr interpolationmode  sample-hold
attr title  "data queue length, timeavg"
scalar ExamTaskNetwork.BrowsingLaptop[4].wlan[0].mac 	"number of received packets" 	11755
scalar ExamTaskNetwork.BrowsingLaptop[4].wlan[0].mac 	"number of collisions" 	24262
scalar ExamTaskNetwork.BrowsingLaptop[4].wlan[0].mac 	"number of internal collisions" 	0
scalar ExamTaskNetwork.BrowsingLaptop[4].wlan[0].mac 	"number of retry for AC 0" 	41
scalar ExamTaskNetwork.BrowsingLaptop[4].wlan[0].mac 	"sent and received bits" 	4782960
scalar ExamTaskNetwork.BrowsingLaptop[4].wlan[0].mac 	"sent packet within AC 0" 	5802
scalar ExamTaskNetwork.BrowsingLaptop[4].wlan[0].mac 	"sent in TXOP " 	0
scalar ExamTaskNetwork.BrowsingLaptop[4].wlan[0].mac 	"sentWithoutRetry AC 0" 	5772
scalar ExamTaskNetwork.BrowsingLaptop[4].wlan[0].mac 	"numGivenUp AC 0" 	0
scalar ExamTaskNetwork.BrowsingLaptop[4].wlan[0].mac 	"numDropped AC 0" 	0
scalar ExamTaskNetwork.BrowsingLaptop[4].wlan[0].mac 	rcvdPkFromHL:count 	5811
attr interpolationmode  none
attr source  packetReceivedFromUpper
attr title  "packets received from higher layer, count"
scalar ExamTaskNetwork.BrowsingLaptop[4].wlan[0].mac 	rcvdPkFromHL:sum(packetBytes) 	597870
attr interpolationmode  none
attr source  packetReceivedFromUpper
attr title  "packets received from higher layer, sum(packetBytes)"
scalar ExamTaskNetwork.BrowsingLaptop[4].wlan[0].mac 	passedUpPk:count 	16438
attr interpolationmode  none
attr source  packetSentToUpper
attr title  "packets passed to higher layer, count"
scalar ExamTaskNetwork.BrowsingLaptop[4].wlan[0].mac 	passedUpPk:sum(packetBytes) 	9981336
attr interpolationmode  none
attr source  packetSentToUpper
attr title  "packets passed to higher layer, sum(packetBytes)"
scalar ExamTaskNetwork.BrowsingLaptop[4].wlan[0].mac 	rcvdPkFromLL:count 	1634275
attr interpolationmode  none
attr source  packetReceivedFromLower
attr title  "packets received from lower layer, count"
scalar ExamTaskNetwork.BrowsingLaptop[4].wlan[0].mac 	rcvdPkFromLL:sum(packetBytes) 	662555460
attr interpolationmode  none
attr source  packetReceivedFromLower
attr title  "packets received from lower layer, sum(packetBytes)"
scalar ExamTaskNetwork.BrowsingLaptop[4].wlan[0].mac 	sentDownPk:count 	17607
attr interpolationmode  none
attr source  packetSentToLower
attr title  "packets sent to lower layer, count"
scalar ExamTaskNetwork.BrowsingLaptop[4].wlan[0].mac 	sentDownPk:sum(packetBytes) 	784592
attr interpolationmode  none
attr source  packetSentToLower
attr title  "packets sent to lower layer, sum(packetBytes)"
scalar ExamTaskNetwork.BrowsingLaptop[4].wlan[0].radio 	lossRate:min 	0
attr interpolationmode  backward-sample-hold
attr title  "packet loss rate, min"
scalar ExamTaskNetwork.BrowsingLaptop[4].wlan[0].radio 	lossRate:max 	0.14
attr interpolationmode  backward-sample-hold
attr title  "packet loss rate, max"
scalar ExamTaskNetwork.BrowsingLaptop[4].wlan[0].radio 	lossRate:timeavg 	0.013563717786421
attr interpolationmode  backward-sample-hold
attr title  "packet loss rate, timeavg"
statistic ExamTaskNetwork.BrowsingLaptop[4].wlan[0].radio 	channelNo:histogram
field count 1
field mean 0
field stddev -nan
field sum 0
field sqrsum 0
field min 0
field max 0
attr interpolationmode  sample-hold
attr title  "channel no, histogram"
bin	-INF	0
bin	-0.5	0
bin	-0.46666666666667	0
bin	-0.43333333333333	0
bin	-0.4	0
bin	-0.36666666666667	0
bin	-0.33333333333333	0
bin	-0.3	0
bin	-0.26666666666667	0
bin	-0.23333333333333	0
bin	-0.2	0
bin	-0.16666666666667	0
bin	-0.13333333333333	0
bin	-0.1	0
bin	-0.066666666666667	0
bin	-0.033333333333333	0
bin	0	1
bin	0.033333333333333	0
bin	0.066666666666667	0
bin	0.1	0
bin	0.13333333333333	0
bin	0.16666666666667	0
bin	0.2	0
bin	0.23333333333333	0
bin	0.26666666666667	0
bin	0.3	0
bin	0.33333333333333	0
bin	0.36666666666667	0
bin	0.4	0
bin	0.43333333333333	0
bin	0.46666666666667	0
bin	0.5	0
scalar ExamTaskNetwork.BrowsingLaptop[4].wlan[0].radio 	radioState:count 	3303818
attr interpolationmode  sample-hold
attr title  "radio state (enum), count"
scalar ExamTaskNetwork.BrowsingLaptop[4].wlan[0].radio 	bitrate:min 	54000000
attr interpolationmode  sample-hold
attr title  "tx bitrate, min"
attr unit  bps
scalar ExamTaskNetwork.BrowsingLaptop[4].wlan[0].radio 	bitrate:max 	54000000
attr interpolationmode  sample-hold
attr title  "tx bitrate, max"
attr unit  bps
scalar ExamTaskNetwork.BrowsingLaptop[4].wlan[0].radio 	bitrate:timeavg 	54000000
attr interpolationmode  sample-hold
attr title  "tx bitrate, timeavg"
attr unit  bps
scalar ExamTaskNetwork.BrowsingLaptop[4].tcpApp[0] 	numActiveSessions:max 	1
attr interpolationmode  sample-hold
attr source  sum(connect)
attr title  "number of active sessions, max"
scalar ExamTaskNetwork.BrowsingLaptop[4].tcpApp[0] 	numActiveSessions:timeavg 	0.26438879772981
attr interpolationmode  sample-hold
attr source  sum(connect)
attr title  "number of active sessions, timeavg"
scalar ExamTaskNetwork.BrowsingLaptop[4].tcpApp[0] 	numSessions:last 	15
attr source  sum(connect+1)/2
attr title  "total number of sessions, last"
scalar ExamTaskNetwork.BrowsingLaptop[4].tcpApp[0] 	sentPk:count 	15
attr interpolationmode  none
attr source  sentPk
attr title  "packets sent, count"
scalar ExamTaskNetwork.BrowsingLaptop[4].tcpApp[0] 	sentPk:sum(packetBytes) 	122880
attr interpolationmode  none
attr source  sentPk
attr title  "packets sent, sum(packetBytes)"
scalar ExamTaskNetwork.BrowsingLaptop[4].tcpApp[0] 	rcvdPk:count 	15
attr interpolationmode  none
attr source  rcvdPk
attr title  "packets received, count"
scalar ExamTaskNetwork.BrowsingLaptop[4].tcpApp[0] 	rcvdPk:sum(packetBytes) 	7925052
attr interpolationmode  none
attr source  rcvdPk
attr title  "packets received, sum(packetBytes)"
statistic ExamTaskNetwork.BrowsingLaptop[4].tcpApp[0] 	endToEndDelay:histogram
field count 15
field mean 8.6761715743206
field stddev 6.6895244424863
field sum 130.14257361481
field sqrsum 1755.6356195384
field min 2.752455672534
field max 24.934687198048
attr interpolationmode  none
attr source  messageAge(rcvdPk)
attr title  "end-to-end delay, histogram"
attr unit  s
bin	-INF	0
bin	-8.338660090223	0
bin	-6.8598446551887	0
bin	-5.3810292201545	0
bin	-3.9022137851202	0
bin	-2.4233983500859	0
bin	-0.94458291505167	0
bin	0.5342325199826	0
bin	2.0130479550169	2
bin	3.4918633900511	3
bin	4.9706788250854	2
bin	6.4494942601197	2
bin	7.9283096951539	3
bin	9.4071251301882	0
bin	10.885940565222	0
bin	12.364756000257	0
bin	13.843571435291	0
bin	15.322386870325	0
bin	16.80120230536	1
bin	18.280017740394	1
bin	19.758833175428	0
bin	21.237648610462	0
bin	22.716464045497	0
bin	24.195279480531	1
bin	25.674094915565	0
bin	27.152910350599	0
bin	28.631725785634	0
bin	30.110541220668	0
bin	31.589356655702	0
bin	33.068172090736	0
bin	34.546987525771	0
bin	36.025802960805	0
scalar ExamTaskNetwork.BrowsingLaptop[5].networkLayer.arp 	initiatedARPResolution:count 	5
attr title  "ARP initiated resolutions, count"
scalar ExamTaskNetwork.BrowsingLaptop[5].networkLayer.arp 	sentReply:count 	2
attr title  "ARP replies sent, count"
scalar ExamTaskNetwork.BrowsingLaptop[5].networkLayer.arp 	sentReq:count 	5
attr title  "ARP request sent, count"
scalar ExamTaskNetwork.BrowsingLaptop[5].networkLayer.arp 	failedARPResolution:count 	0
attr title  "ARP failed resolutions, count"
scalar ExamTaskNetwork.BrowsingLaptop[5].networkLayer.arp 	completedARPResolution:count 	22
attr title  "ARP completed resolutions, count"
scalar ExamTaskNetwork.BrowsingLaptop[5].lo0.lo 	rcvdPkFromHL:count 	0
attr interpolationmode  none
attr source  packetReceivedFromUpper
attr title  "packets received from higher layer, count"
scalar ExamTaskNetwork.BrowsingLaptop[5].lo0.lo 	rcvdPkFromHL:sum(packetBytes) 	0
attr interpolationmode  none
attr source  packetReceivedFromUpper
attr title  "packets received from higher layer, sum(packetBytes)"
scalar ExamTaskNetwork.BrowsingLaptop[5].lo0.lo 	passedUpPk:count 	0
attr interpolationmode  none
attr source  packetSentToUpper
attr title  "packets passed to higher layer, count"
scalar ExamTaskNetwork.BrowsingLaptop[5].lo0.lo 	passedUpPk:sum(packetBytes) 	0
attr interpolationmode  none
attr source  packetSentToUpper
attr title  "packets passed to higher layer, sum(packetBytes)"
scalar ExamTaskNetwork.BrowsingLaptop[5].lo0.lo 	droppedPkBitError:count 	0
attr interpolationmode  none
attr source  dropPkBitError
attr title  "packets dropped/bit error, count"
scalar ExamTaskNetwork.BrowsingLaptop[5].lo0.lo 	droppedPkBitError:sum(packetBytes) 	0
attr interpolationmode  none
attr source  dropPkBitError
attr title  "packets dropped/bit error, sum(packetBytes)"
scalar ExamTaskNetwork.BrowsingLaptop[5].wlan[0].agent 	dropConfirm:count 	0
attr title  "dropped confirms, count"
scalar ExamTaskNetwork.BrowsingLaptop[5].wlan[0].agent 	acceptConfirm:count 	27
attr title  "accepted confirms, count"
scalar ExamTaskNetwork.BrowsingLaptop[5].wlan[0].agent 	sentRequest:count 	27
attr title  "sent requests, count"
scalar ExamTaskNetwork.BrowsingLaptop[5].wlan[0].mgmt 	dropPkByQueue:count 	47
attr interpolationmode  none
attr source  dropPkByQueue
attr title  "packets dropped by queue, count"
scalar ExamTaskNetwork.BrowsingLaptop[5].wlan[0].mgmt 	dropPkByQueue:sum(packetBytes) 	4602
attr interpolationmode  none
attr source  dropPkByQueue
attr title  "packets dropped by queue, sum(packetBytes)"
scalar ExamTaskNetwork.BrowsingLaptop[5].wlan[0].mgmt 	dataQueueLen:max 	50
attr interpolationmode  sample-hold
attr title  "data queue length, max"
scalar ExamTaskNetwork.BrowsingLaptop[5].wlan[0].mgmt 	dataQueueLen:timeavg 	0.025164787984238
attr interpolationmode  sample-hold
attr title  "data queue length, timeavg"
scalar ExamTaskNetwork.BrowsingLaptop[5].wlan[0].mac 	"number of received packets" 	15192
scalar ExamTaskNetwork.BrowsingLaptop[5].wlan[0].mac 	"number of collisions" 	24144
scalar ExamTaskNetwork.BrowsingLaptop[5].wlan[0].mac 	"number of internal collisions" 	0
scalar ExamTaskNetwork.BrowsingLaptop[5].wlan[0].mac 	"number of retry for AC 0" 	186
scalar ExamTaskNetwork.BrowsingLaptop[5].wlan[0].mac 	"sent and received bits" 	6422144
scalar ExamTaskNetwork.BrowsingLaptop[5].wlan[0].mac 	"sent packet within AC 0" 	7905
scalar ExamTaskNetwork.BrowsingLaptop[5].wlan[0].mac 	"sent in TXOP " 	0
scalar ExamTaskNetwork.BrowsingLaptop[5].wlan[0].mac 	"sentWithoutRetry AC 0" 	7757
scalar ExamTaskNetwork.BrowsingLaptop[5].wlan[0].mac 	"numGivenUp AC 0" 	1
scalar ExamTaskNetwork.BrowsingLaptop[5].wlan[0].mac 	"numDropped AC 0" 	0
scalar ExamTaskNetwork.BrowsingLaptop[5].wlan[0].mac 	rcvdPkFromHL:count 	7916
attr interpolationmode  none
attr source  packetReceivedFromUpper
attr title  "packets received from higher layer, count"
scalar ExamTaskNetwork.BrowsingLaptop[5].wlan[0].mac 	rcvdPkFromHL:sum(packetBytes) 	802948
attr interpolationmode  none
attr source  packetReceivedFromUpper
attr title  "packets received from higher layer, sum(packetBytes)"
scalar ExamTaskNetwork.BrowsingLaptop[5].wlan[0].mac 	passedUpPk:count 	19874
attr interpolationmode  none
attr source  packetSentToUpper
attr title  "packets passed to higher layer, count"
scalar ExamTaskNetwork.BrowsingLaptop[5].wlan[0].mac 	passedUpPk:sum(packetBytes) 	12778041
attr interpolationmode  none
attr source  packetSentToUpper
attr title  "packets passed to higher layer, sum(packetBytes)"
scalar ExamTaskNetwork.BrowsingLaptop[5].wlan[0].mac 	rcvdPkFromLL:count 	1628588
attr interpolationmode  none
attr source  packetReceivedFromLower
attr title  "packets received from lower layer, count"
scalar ExamTaskNetwork.BrowsingLaptop[5].wlan[0].mac 	rcvdPkFromLL:sum(packetBytes) 	662127390
attr interpolationmode  none
attr source  packetReceivedFromLower
attr title  "packets received from lower layer, sum(packetBytes)"
scalar ExamTaskNetwork.BrowsingLaptop[5].wlan[0].mac 	sentDownPk:count 	23294
attr interpolationmode  none
attr source  packetSentToLower
attr title  "packets sent to lower layer, count"
scalar ExamTaskNetwork.BrowsingLaptop[5].wlan[0].mac 	sentDownPk:sum(packetBytes) 	1071072
attr interpolationmode  none
attr source  packetSentToLower
attr title  "packets sent to lower layer, sum(packetBytes)"
scalar ExamTaskNetwork.BrowsingLaptop[5].wlan[0].radio 	lossRate:min 	0
attr interpolationmode  backward-sample-hold
attr title  "packet loss rate, min"
scalar ExamTaskNetwork.BrowsingLaptop[5].wlan[0].radio 	lossRate:max 	0.16
attr interpolationmode  backward-sample-hold
attr title  "packet loss rate, max"
scalar ExamTaskNetwork.BrowsingLaptop[5].wlan[0].radio 	lossRate:timeavg 	0.013633888803196
attr interpolationmode  backward-sample-hold
attr title  "packet loss rate, timeavg"
statistic ExamTaskNetwork.BrowsingLaptop[5].wlan[0].radio 	channelNo:histogram
field count 1
field mean 0
field stddev -nan
field sum 0
field sqrsum 0
field min 0
field max 0
attr interpolationmode  sample-hold
attr title  "channel no, histogram"
bin	-INF	0
bin	-0.5	0
bin	-0.46666666666667	0
bin	-0.43333333333333	0
bin	-0.4	0
bin	-0.36666666666667	0
bin	-0.33333333333333	0
bin	-0.3	0
bin	-0.26666666666667	0
bin	-0.23333333333333	0
bin	-0.2	0
bin	-0.16666666666667	0
bin	-0.13333333333333	0
bin	-0.1	0
bin	-0.066666666666667	0
bin	-0.033333333333333	0
bin	0	1
bin	0.033333333333333	0
bin	0.066666666666667	0
bin	0.1	0
bin	0.13333333333333	0
bin	0.16666666666667	0
bin	0.2	0
bin	0.23333333333333	0
bin	0.26666666666667	0
bin	0.3	0
bin	0.33333333333333	0
bin	0.36666666666667	0
bin	0.4	0
bin	0.43333333333333	0
bin	0.46666666666667	0
bin	0.5	0
scalar ExamTaskNetwork.BrowsingLaptop[5].wlan[0].radio 	radioState:count 	3303989
attr interpolationmode  sample-hold
attr title  "radio state (enum), count"
scalar ExamTaskNetwork.BrowsingLaptop[5].wlan[0].radio 	bitrate:min 	54000000
attr interpolationmode  sample-hold
attr title  "tx bitrate, min"
attr unit  bps
scalar ExamTaskNetwork.BrowsingLaptop[5].wlan[0].radio 	bitrate:max 	54000000
attr interpolationmode  sample-hold
attr title  "tx bitrate, max"
attr unit  bps
scalar ExamTaskNetwork.BrowsingLaptop[5].wlan[0].radio 	bitrate:timeavg 	54000000
attr interpolationmode  sample-hold
attr title  "tx bitrate, timeavg"
attr unit  bps
scalar ExamTaskNetwork.BrowsingLaptop[5].tcpApp[0] 	numActiveSessions:max 	1
attr interpolationmode  sample-hold
attr source  sum(connect)
attr title  "number of active sessions, max"
scalar ExamTaskNetwork.BrowsingLaptop[5].tcpApp[0] 	numActiveSessions:timeavg 	0.31026122603492
attr interpolationmode  sample-hold
attr source  sum(connect)
attr title  "number of active sessions, timeavg"
scalar ExamTaskNetwork.BrowsingLaptop[5].tcpApp[0] 	numSessions:last 	18
attr source  sum(connect+1)/2
attr title  "total number of sessions, last"
scalar ExamTaskNetwork.BrowsingLaptop[5].tcpApp[0] 	sentPk:count 	18
attr interpolationmode  none
attr source  sentPk
attr title  "packets sent, count"
scalar ExamTaskNetwork.BrowsingLaptop[5].tcpApp[0] 	sentPk:sum(packetBytes) 	147456
attr interpolationmode  none
attr source  sentPk
attr title  "packets sent, sum(packetBytes)"
scalar ExamTaskNetwork.BrowsingLaptop[5].tcpApp[0] 	rcvdPk:count 	17
attr interpolationmode  none
attr source  rcvdPk
attr title  "packets received, count"
scalar ExamTaskNetwork.BrowsingLaptop[5].tcpApp[0] 	rcvdPk:sum(packetBytes) 	9742202
attr interpolationmode  none
attr source  rcvdPk
attr title  "packets received, sum(packetBytes)"
statistic ExamTaskNetwork.BrowsingLaptop[5].tcpApp[0] 	endToEndDelay:histogram
field count 17
field mean 8.9351312848252
field stddev 6.8636713548652
field sum 151.89723184203
field sqrsum 2110.9814597916
field min 0.76086263009
field max 21.721877548326
attr interpolationmode  none
attr source  messageAge(rcvdPk)
attr title  "end-to-end delay, histogram"
attr unit  s
bin	-INF	0
bin	-9.719644829028	0
bin	-8.3222438344789	0
bin	-6.9248428399299	0
bin	-5.5274418453808	0
bin	-4.1300408508317	0
bin	-2.7326398562827	0
bin	-1.3352388617336	0
bin	0.062162132815466	2
bin	1.4595631273645	0
bin	2.8569641219136	3
bin	4.2543651164627	3
bin	5.6517661110117	1
bin	7.0491671055608	2
bin	8.4465681001099	0
bin	9.8439690946589	1
bin	11.241370089208	0
bin	12.638771083757	0
bin	14.036172078306	0
bin	15.433573072855	1
bin	16.830974067404	2
bin	18.228375061953	1
bin	19.625776056502	0
bin	21.023177051051	1
bin	22.420578045601	0
bin	23.81797904015	0
bin	25.215380034699	0
bin	26.612781029248	0
bin	28.010182023797	0
bin	29.407583018346	0
bin	30.804984012895	0
bin	32.202385007444	0
scalar ExamTaskNetwork.BrowsingLaptop[6].networkLayer.arp 	initiatedARPResolution:count 	4
attr title  "ARP initiated resolutions, count"
scalar ExamTaskNetwork.BrowsingLaptop[6].networkLayer.arp 	sentReply:count 	1
attr title  "ARP replies sent, count"
scalar ExamTaskNetwork.BrowsingLaptop[6].networkLayer.arp 	sentReq:count 	4
attr title  "ARP request sent, count"
scalar ExamTaskNetwork.BrowsingLaptop[6].networkLayer.arp 	failedARPResolution:count 	0
attr title  "ARP failed resolutions, count"
scalar ExamTaskNetwork.BrowsingLaptop[6].networkLayer.arp 	completedARPResolution:count 	20
attr title  "ARP completed resolutions, count"
scalar ExamTaskNetwork.BrowsingLaptop[6].lo0.lo 	rcvdPkFromHL:count 	0
attr interpolationmode  none
attr source  packetReceivedFromUpper
attr title  "packets received from higher layer, count"
scalar ExamTaskNetwork.BrowsingLaptop[6].lo0.lo 	rcvdPkFromHL:sum(packetBytes) 	0
attr interpolationmode  none
attr source  packetReceivedFromUpper
attr title  "packets received from higher layer, sum(packetBytes)"
scalar ExamTaskNetwork.BrowsingLaptop[6].lo0.lo 	passedUpPk:count 	0
attr interpolationmode  none
attr source  packetSentToUpper
attr title  "packets passed to higher layer, count"
scalar ExamTaskNetwork.BrowsingLaptop[6].lo0.lo 	passedUpPk:sum(packetBytes) 	0
attr interpolationmode  none
attr source  packetSentToUpper
attr title  "packets passed to higher layer, sum(packetBytes)"
scalar ExamTaskNetwork.BrowsingLaptop[6].lo0.lo 	droppedPkBitError:count 	0
attr interpolationmode  none
attr source  dropPkBitError
attr title  "packets dropped/bit error, count"
scalar ExamTaskNetwork.BrowsingLaptop[6].lo0.lo 	droppedPkBitError:sum(packetBytes) 	0
attr interpolationmode  none
attr source  dropPkBitError
attr title  "packets dropped/bit error, sum(packetBytes)"
scalar ExamTaskNetwork.BrowsingLaptop[6].wlan[0].agent 	dropConfirm:count 	0
attr title  "dropped confirms, count"
scalar ExamTaskNetwork.BrowsingLaptop[6].wlan[0].agent 	acceptConfirm:count 	27
attr title  "accepted confirms, count"
scalar ExamTaskNetwork.BrowsingLaptop[6].wlan[0].agent 	sentRequest:count 	27
attr title  "sent requests, count"
scalar ExamTaskNetwork.BrowsingLaptop[6].wlan[0].mgmt 	dropPkByQueue:count 	0
attr interpolationmode  none
attr source  dropPkByQueue
attr title  "packets dropped by queue, count"
scalar ExamTaskNetwork.BrowsingLaptop[6].wlan[0].mgmt 	dropPkByQueue:sum(packetBytes) 	0
attr interpolationmode  none
attr source  dropPkByQueue
attr title  "packets dropped by queue, sum(packetBytes)"
scalar ExamTaskNetwork.BrowsingLaptop[6].wlan[0].mgmt 	dataQueueLen:max 	0
attr interpolationmode  sample-hold
attr title  "data queue length, max"
scalar ExamTaskNetwork.BrowsingLaptop[6].wlan[0].mgmt 	dataQueueLen:timeavg 	0
attr interpolationmode  sample-hold
attr title  "data queue length, timeavg"
scalar ExamTaskNetwork.BrowsingLaptop[6].wlan[0].mac 	"number of received packets" 	18458
scalar ExamTaskNetwork.BrowsingLaptop[6].wlan[0].mac 	"number of collisions" 	24250
scalar ExamTaskNetwork.BrowsingLaptop[6].wlan[0].mac 	"number of internal collisions" 	0
[...]
scalar ExamTaskNetwork.MainRouter.eth[1].encap 	pauseSent:count 	0
attr title  "pause sent, count"
scalar ExamTaskNetwork.MainRouter.eth[1].encap 	pauseSent:sum 	0
attr title  "pause sent, sum"
scalar ExamTaskNetwork.MainRouter.eth[1].encap 	decapPk:count 	12209
attr interpolationmode  none
attr source  decapPk
attr title  "packets decapsulated, count"
scalar ExamTaskNetwork.MainRouter.eth[1].encap 	decapPk:sum(packetBytes) 	17421852
attr interpolationmode  none
attr source  decapPk
attr title  "packets decapsulated, sum(packetBytes)"
scalar ExamTaskNetwork.MainRouter.eth[1].encap 	encapPk:count 	12114
attr interpolationmode  none
attr source  encapPk
attr title  "packets encapsulated, count"
scalar ExamTaskNetwork.MainRouter.eth[1].encap 	encapPk:sum(packetBytes) 	17286192
attr interpolationmode  none
attr source  encapPk
attr title  "packets encapsulated, sum(packetBytes)"
scalar ExamTaskNetwork.MainRouter.eth[2].mac 	"simulated time" 	500
scalar ExamTaskNetwork.MainRouter.eth[2].mac 	full-duplex 	1
scalar ExamTaskNetwork.MainRouter.eth[2].mac 	"frames/sec sent" 	169.742
scalar ExamTaskNetwork.MainRouter.eth[2].mac 	"frames/sec rcvd" 	0.01
scalar ExamTaskNetwork.MainRouter.eth[2].mac 	"bits/sec sent" 	2039513.28
scalar ExamTaskNetwork.MainRouter.eth[2].mac 	"bits/sec rcvd" 	5.12
scalar ExamTaskNetwork.MainRouter.eth[2].mac 	"rx channel idle (%)" 	99.99999424
scalar ExamTaskNetwork.MainRouter.eth[2].mac 	"rx channel utilization (%)" 	5.76e-06
scalar ExamTaskNetwork.MainRouter.eth[2].mac 	rxPkFromHL:count 	84871
attr interpolationmode  none
attr source  rxPkFromHL
attr title  "packet bytes from higher layer, count"
scalar ExamTaskNetwork.MainRouter.eth[2].mac 	rxPkFromHL:sum(packetBytes) 	127469580
attr interpolationmode  none
attr source  rxPkFromHL
attr title  "packet bytes from higher layer, sum(packetBytes)"
scalar ExamTaskNetwork.MainRouter.eth[2].mac 	rxPausePkUnits:count 	0
attr interpolationmode  none
attr title  "pause units received, count"
scalar ExamTaskNetwork.MainRouter.eth[2].mac 	rxPausePkUnits:sum 	0
attr interpolationmode  none
attr title  "pause units received, sum"
scalar ExamTaskNetwork.MainRouter.eth[2].mac 	txPausePkUnits:count 	0
attr interpolationmode  none
attr title  "pause units sent, count"
scalar ExamTaskNetwork.MainRouter.eth[2].mac 	txPausePkUnits:sum 	0
attr interpolationmode  none
attr title  "pause units sent, sum"
scalar ExamTaskNetwork.MainRouter.eth[2].mac 	txPk:count 	84871
attr interpolationmode  none
attr source  txPk
attr title  "packets transmitted, count"
scalar ExamTaskNetwork.MainRouter.eth[2].mac 	txPk:sum(packetBytes) 	127469580
attr interpolationmode  none
attr source  txPk
attr title  "packets transmitted, sum(packetBytes)"
scalar ExamTaskNetwork.MainRouter.eth[2].mac 	droppedPkNotForUs:count 	0
attr interpolationmode  none
attr source  dropPkNotForUs
attr title  "packets dropped/not for us, count"
scalar ExamTaskNetwork.MainRouter.eth[2].mac 	droppedPkNotForUs:sum(packetBytes) 	0
attr interpolationmode  none
attr source  dropPkNotForUs
attr title  "packets dropped/not for us, sum(packetBytes)"
scalar ExamTaskNetwork.MainRouter.eth[2].mac 	passedUpPk:count 	5
attr interpolationmode  none
attr source  packetSentToUpper
attr title  "packets passed to higher layer, count"
scalar ExamTaskNetwork.MainRouter.eth[2].mac 	passedUpPk:sum(packetBytes) 	320
attr interpolationmode  none
attr source  packetSentToUpper
attr title  "packets passed to higher layer, sum(packetBytes)"
scalar ExamTaskNetwork.MainRouter.eth[2].mac 	droppedPkBitError:count 	0
attr interpolationmode  none
attr source  dropPkBitError
attr title  "packets dropped/bit error, count"
scalar ExamTaskNetwork.MainRouter.eth[2].mac 	droppedPkBitError:sum(packetBytes) 	0
attr interpolationmode  none
attr source  dropPkBitError
attr title  "packets dropped/bit error, sum(packetBytes)"
scalar ExamTaskNetwork.MainRouter.eth[2].mac 	droppedPkIfaceDown:count 	0
attr interpolationmode  none
attr source  dropPkIfaceDown
attr title  "packets dropped/interface down, count"
scalar ExamTaskNetwork.MainRouter.eth[2].mac 	droppedPkIfaceDown:sum(packetBytes) 	0
attr interpolationmode  none
attr source  dropPkIfaceDown
attr title  "packets dropped/interface down, sum(packetBytes)"
scalar ExamTaskNetwork.MainRouter.eth[2].mac 	rxPkOk:count 	5
attr interpolationmode  none
attr source  rxPkOk
attr title  "packets received OK, count"
scalar ExamTaskNetwork.MainRouter.eth[2].mac 	rxPkOk:sum(packetBytes) 	320
attr interpolationmode  none
attr source  rxPkOk
attr title  "packets received OK, sum(packetBytes)"
scalar ExamTaskNetwork.MainRouter.eth[2].encap 	pauseSent:count 	0
attr title  "pause sent, count"
scalar ExamTaskNetwork.MainRouter.eth[2].encap 	pauseSent:sum 	0
attr title  "pause sent, sum"
scalar ExamTaskNetwork.MainRouter.eth[2].encap 	decapPk:count 	5
attr interpolationmode  none
attr source  decapPk
attr title  "packets decapsulated, count"
scalar ExamTaskNetwork.MainRouter.eth[2].encap 	decapPk:sum(packetBytes) 	140
attr interpolationmode  none
attr source  decapPk
attr title  "packets decapsulated, sum(packetBytes)"
scalar ExamTaskNetwork.MainRouter.eth[2].encap 	encapPk:count 	84871
attr interpolationmode  none
attr source  encapPk
attr title  "packets encapsulated, count"
scalar ExamTaskNetwork.MainRouter.eth[2].encap 	encapPk:sum(packetBytes) 	125941812
attr interpolationmode  none
attr source  encapPk
attr title  "packets encapsulated, sum(packetBytes)"
scalar ExamTaskNetwork.MainRouter.ppp[0].outputHook[0] 	duration 	500
scalar ExamTaskNetwork.MainRouter.ppp[0].outputHook[0] 	"total packets" 	482538
scalar ExamTaskNetwork.MainRouter.ppp[0].outputHook[0] 	"total bits" 	1520319936
scalar ExamTaskNetwork.MainRouter.ppp[0].outputHook[0] 	"avg throughput (bit/s)" 	3040639.872
scalar ExamTaskNetwork.MainRouter.ppp[0].outputHook[0] 	"avg packets/s" 	965.076
scalar ExamTaskNetwork.MainRouter.ppp[0].inputHook[0] 	duration 	500
scalar ExamTaskNetwork.MainRouter.ppp[0].inputHook[0] 	"total packets" 	443128
scalar ExamTaskNetwork.MainRouter.ppp[0].inputHook[0] 	"total bits" 	4270350032
scalar ExamTaskNetwork.MainRouter.ppp[0].inputHook[0] 	"avg throughput (bit/s)" 	8540700.064
scalar ExamTaskNetwork.MainRouter.ppp[0].inputHook[0] 	"avg packets/s" 	886.256
statistic ExamTaskNetwork.MainRouter.ppp[0].queue 	queueingTime:histogram
field count 454662
field mean 0.0014313868637464
field stddev 0.0041221696750568
field sum 650.79721424468
field sqrsum 8.657270887184
field min 0
field max 0.039371975235
attr interpolationmode  none
attr title  "queueing time, histogram"
bin	-INF	0
bin	-0.000724973333	0
bin	-0.00062831022193333	0
bin	-0.00053164711086667	0
bin	-0.0004349839998	0
bin	-0.00033832088873333	0
bin	-0.00024165777766667	0
bin	-0.0001449946666	0
bin	-4.8331555533333e-05	274861
bin	4.8331555533333e-05	9933
bin	0.0001449946666	3481
bin	0.00024165777766667	1770
bin	0.00033832088873333	1590
bin	0.0004349839998	1319
bin	0.00053164711086667	2116
bin	0.00062831022193333	1995
bin	0.000724973333	2463
bin	0.00082163644406667	12935
bin	0.00091829955513333	44123
bin	0.0010149626662	5573
bin	0.0011116257772667	4196
bin	0.0012082888883333	1400
bin	0.0013049519994	1046
bin	0.0014016151104667	1039
bin	0.0014982782215333	1653
bin	0.0015949413326	1836
bin	0.0016916044436667	1092
bin	0.0017882675547333	3611
bin	0.0018849306658	12952
bin	0.0019815937768667	2130
bin	0.0020782568879333	1978
bin	0.002174919999	59570
scalar ExamTaskNetwork.MainRouter.ppp[0].queue 	dropPk:count 	27876
attr interpolationmode  none
attr source  dropPkByQueue
attr title  "dropped packets, count"
scalar ExamTaskNetwork.MainRouter.ppp[0].queue 	dropPk:sum(packetBytes) 	19917282
attr interpolationmode  none
attr source  dropPkByQueue
attr title  "dropped packets, sum(packetBytes)"
scalar ExamTaskNetwork.MainRouter.ppp[0].queue 	queueLength:max 	50
attr interpolationmode  sample-hold
attr title  "queue length, max"
scalar ExamTaskNetwork.MainRouter.ppp[0].queue 	queueLength:timeavg 	1.3015944284899
attr interpolationmode  sample-hold
attr title  "queue length, timeavg"
scalar ExamTaskNetwork.MainRouter.ppp[0].queue 	rcvdPk:count 	482538
attr interpolationmode  none
attr title  "received packets, count"
scalar ExamTaskNetwork.MainRouter.ppp[0].queue 	rcvdPk:sum(packetBytes) 	190039992
attr interpolationmode  none
attr title  "received packets, sum(packetBytes)"
scalar ExamTaskNetwork.MainRouter.ppp[0].ppp 	rcvdPkFromHL:count 	454662
attr interpolationmode  none
attr source  packetReceivedFromUpper
attr title  "packets received from higher layer, count"
scalar ExamTaskNetwork.MainRouter.ppp[0].ppp 	rcvdPkFromHL:sum(packetBytes) 	170122710
attr interpolationmode  none
attr source  packetReceivedFromUpper
attr title  "packets received from higher layer, sum(packetBytes)"
scalar ExamTaskNetwork.MainRouter.ppp[0].ppp 	passedUpPk:count 	443128
attr interpolationmode  none
attr source  packetSentToUpper
attr title  "packets passed to higher layer, count"
scalar ExamTaskNetwork.MainRouter.ppp[0].ppp 	passedUpPk:sum(packetBytes) 	533793754
attr interpolationmode  none
attr source  packetSentToUpper
attr title  "packets passed to higher layer, sum(packetBytes)"
scalar ExamTaskNetwork.MainRouter.ppp[0].ppp 	txPk:count 	454662
attr interpolationmode  none
attr source  packetSentToLower
attr title  "packets transmitted, count"
scalar ExamTaskNetwork.MainRouter.ppp[0].ppp 	txPk:sum(packetBytes) 	173305344
attr interpolationmode  none
attr source  packetSentToLower
attr title  "packets transmitted, sum(packetBytes)"
scalar ExamTaskNetwork.MainRouter.ppp[0].ppp 	droppedPkBitError:count 	0
attr interpolationmode  none
attr source  dropPkBitError
attr title  "packets dropped/bit error, count"
scalar ExamTaskNetwork.MainRouter.ppp[0].ppp 	droppedPkBitError:sum(packetBytes) 	0
attr interpolationmode  none
attr source  dropPkBitError
attr title  "packets dropped/bit error, sum(packetBytes)"
scalar ExamTaskNetwork.MainRouter.ppp[0].ppp 	droppedPkIfaceDown:count 	0
attr interpolationmode  none
attr source  dropPkIfaceDown
attr title  "packets dropped/interface down, count"
scalar ExamTaskNetwork.MainRouter.ppp[0].ppp 	droppedPkIfaceDown:sum(packetBytes) 	0
attr interpolationmode  none
attr source  dropPkIfaceDown
attr title  "packets dropped/interface down, sum(packetBytes)"
scalar ExamTaskNetwork.MainRouter.ppp[0].ppp 	rxPkOk:count 	443128
attr interpolationmode  none
attr source  rxPkOk
attr title  "packets received OK, count"
scalar ExamTaskNetwork.MainRouter.ppp[0].ppp 	rxPkOk:sum(packetBytes) 	536895650
attr interpolationmode  none
attr source  rxPkOk
attr title  "packets received OK, sum(packetBytes)"
scalar ExamTaskNetwork.MainRouter.ppp[0].ppp 	txState:timeavg 	0.23107379168772
attr interpolationmode  sample-hold
attr title  "tx state, timeavg"
scalar ExamTaskNetwork.Internet.networkLayer.arp 	initiatedARPResolution:count 	49
attr title  "ARP initiated resolutions, count"
scalar ExamTaskNetwork.Internet.networkLayer.arp 	sentReply:count 	2
attr title  "ARP replies sent, count"
scalar ExamTaskNetwork.Internet.networkLayer.arp 	sentReq:count 	49
attr title  "ARP request sent, count"
scalar ExamTaskNetwork.Internet.networkLayer.arp 	failedARPResolution:count 	0
attr title  "ARP failed resolutions, count"
scalar ExamTaskNetwork.Internet.networkLayer.arp 	completedARPResolution:count 	51
attr title  "ARP completed resolutions, count"
scalar ExamTaskNetwork.Internet.lo0.lo 	rcvdPkFromHL:count 	0
attr interpolationmode  none
attr source  packetReceivedFromUpper
attr title  "packets received from higher layer, count"
scalar ExamTaskNetwork.Internet.lo0.lo 	rcvdPkFromHL:sum(packetBytes) 	0
attr interpolationmode  none
attr source  packetReceivedFromUpper
attr title  "packets received from higher layer, sum(packetBytes)"
scalar ExamTaskNetwork.Internet.lo0.lo 	passedUpPk:count 	0
attr interpolationmode  none
attr source  packetSentToUpper
attr title  "packets passed to higher layer, count"
scalar ExamTaskNetwork.Internet.lo0.lo 	passedUpPk:sum(packetBytes) 	0
attr interpolationmode  none
attr source  packetSentToUpper
attr title  "packets passed to higher layer, sum(packetBytes)"
scalar ExamTaskNetwork.Internet.lo0.lo 	droppedPkBitError:count 	0
attr interpolationmode  none
attr source  dropPkBitError
attr title  "packets dropped/bit error, count"
scalar ExamTaskNetwork.Internet.lo0.lo 	droppedPkBitError:sum(packetBytes) 	0
attr interpolationmode  none
attr source  dropPkBitError
attr title  "packets dropped/bit error, sum(packetBytes)"
scalar ExamTaskNetwork.Internet.eth[0].mac 	"simulated time" 	500
scalar ExamTaskNetwork.Internet.eth[0].mac 	full-duplex 	1
scalar ExamTaskNetwork.Internet.eth[0].mac 	"frames/sec sent" 	940.832
scalar ExamTaskNetwork.Internet.eth[0].mac 	"frames/sec rcvd" 	1205.93
scalar ExamTaskNetwork.Internet.eth[0].mac 	"bits/sec sent" 	2956059.296
scalar ExamTaskNetwork.Internet.eth[0].mac 	"bits/sec rcvd" 	6594968.448
scalar ExamTaskNetwork.Internet.eth[0].mac 	"rx channel idle (%)" 	93.327852032001
scalar ExamTaskNetwork.Internet.eth[0].mac 	"rx channel utilization (%)" 	6.6721479679992
scalar ExamTaskNetwork.Internet.eth[0].mac 	rxPkFromHL:count 	470416
attr interpolationmode  none
attr source  rxPkFromHL
attr title  "packet bytes from higher layer, count"
scalar ExamTaskNetwork.Internet.eth[0].mac 	rxPkFromHL:sum(packetBytes) 	184753706
attr interpolationmode  none
attr source  rxPkFromHL
attr title  "packet bytes from higher layer, sum(packetBytes)"
scalar ExamTaskNetwork.Internet.eth[0].mac 	rxPausePkUnits:count 	0
attr interpolationmode  none
attr title  "pause units received, count"
scalar ExamTaskNetwork.Internet.eth[0].mac 	rxPausePkUnits:sum 	0
attr interpolationmode  none
attr title  "pause units received, sum"
scalar ExamTaskNetwork.Internet.eth[0].mac 	txPausePkUnits:count 	0
attr interpolationmode  none
attr title  "pause units sent, count"
scalar ExamTaskNetwork.Internet.eth[0].mac 	txPausePkUnits:sum 	0
attr interpolationmode  none
attr title  "pause units sent, sum"
scalar ExamTaskNetwork.Internet.eth[0].mac 	txPk:count 	470416
attr interpolationmode  none
attr source  txPk
attr title  "packets transmitted, count"
scalar ExamTaskNetwork.Internet.eth[0].mac 	txPk:sum(packetBytes) 	184753706
attr interpolationmode  none
attr source  txPk
attr title  "packets transmitted, sum(packetBytes)"
scalar ExamTaskNetwork.Internet.eth[0].mac 	droppedPkNotForUs:count 	0
attr interpolationmode  none
attr source  dropPkNotForUs
attr title  "packets dropped/not for us, count"
scalar ExamTaskNetwork.Internet.eth[0].mac 	droppedPkNotForUs:sum(packetBytes) 	0
attr interpolationmode  none
attr source  dropPkNotForUs
attr title  "packets dropped/not for us, sum(packetBytes)"
scalar ExamTaskNetwork.Internet.eth[0].mac 	passedUpPk:count 	602965
attr interpolationmode  none
attr source  packetSentToUpper
attr title  "packets passed to higher layer, count"
scalar ExamTaskNetwork.Internet.eth[0].mac 	passedUpPk:sum(packetBytes) 	412185528
attr interpolationmode  none
attr source  packetSentToUpper
attr title  "packets passed to higher layer, sum(packetBytes)"
scalar ExamTaskNetwork.Internet.eth[0].mac 	droppedPkBitError:count 	0
attr interpolationmode  none
attr source  dropPkBitError
attr title  "packets dropped/bit error, count"
scalar ExamTaskNetwork.Internet.eth[0].mac 	droppedPkBitError:sum(packetBytes) 	0
attr interpolationmode  none
attr source  dropPkBitError
attr title  "packets dropped/bit error, sum(packetBytes)"
scalar ExamTaskNetwork.Internet.eth[0].mac 	droppedPkIfaceDown:count 	0
attr interpolationmode  none
attr source  dropPkIfaceDown
attr title  "packets dropped/interface down, count"
scalar ExamTaskNetwork.Internet.eth[0].mac 	droppedPkIfaceDown:sum(packetBytes) 	0
attr interpolationmode  none
attr source  dropPkIfaceDown
attr title  "packets dropped/interface down, sum(packetBytes)"
scalar ExamTaskNetwork.Internet.eth[0].mac 	rxPkOk:count 	602965
attr interpolationmode  none
attr source  rxPkOk
attr title  "packets received OK, count"
scalar ExamTaskNetwork.Internet.eth[0].mac 	rxPkOk:sum(packetBytes) 	412185528
attr interpolationmode  none
attr source  rxPkOk
attr title  "packets received OK, sum(packetBytes)"
scalar ExamTaskNetwork.Internet.eth[0].encap 	pauseSent:count 	0
attr title  "pause sent, count"
scalar ExamTaskNetwork.Internet.eth[0].encap 	pauseSent:sum 	0
attr title  "pause sent, sum"
scalar ExamTaskNetwork.Internet.eth[0].encap 	decapPk:count 	602965
attr interpolationmode  none
attr source  decapPk
attr title  "packets decapsulated, count"
scalar ExamTaskNetwork.Internet.eth[0].encap 	decapPk:sum(packetBytes) 	395674476
attr interpolationmode  none
attr source  decapPk
attr title  "packets decapsulated, sum(packetBytes)"
scalar ExamTaskNetwork.Internet.eth[0].encap 	encapPk:count 	470416
attr interpolationmode  none
attr source  encapPk
attr title  "packets encapsulated, count"
scalar ExamTaskNetwork.Internet.eth[0].encap 	encapPk:sum(packetBytes) 	172620900
attr interpolationmode  none
attr source  encapPk
attr title  "packets encapsulated, sum(packetBytes)"
scalar ExamTaskNetwork.Internet.tcpApp[0] 	sentPk:count 	188
attr interpolationmode  none
attr source  sentPk
attr title  "packets sent, count"
scalar ExamTaskNetwork.Internet.tcpApp[0] 	sentPk:sum(packetBytes) 	120011982
attr interpolationmode  none
attr source  sentPk
attr title  "packets sent, sum(packetBytes)"
scalar ExamTaskNetwork.Internet.tcpApp[0] 	rcvdPk:count 	188
attr interpolationmode  none
attr source  rcvdPk
attr title  "packets received, count"
scalar ExamTaskNetwork.Internet.tcpApp[0] 	rcvdPk:sum(packetBytes) 	1540096
attr interpolationmode  none
attr source  rcvdPk
attr title  "packets received, sum(packetBytes)"
statistic ExamTaskNetwork.Internet.tcpApp[0] 	endToEndDelay:histogram
field count 188
field mean 0.37143318396316
field stddev 0.75725381784969
field sum 69.829438585074
field sqrsum 133.16900615718
field min 0.207755210239
field max 8.428936834645
attr interpolationmode  none
attr source  messageAge(rcvdPk)
attr title  "end-to-end delay, histogram"
attr unit  s
bin	-INF	0
bin	-1.293174901127	0
bin	-1.0930460657897	0
bin	-0.89291723045233	0
bin	-0.692788395115	0
bin	-0.49265955977767	0
bin	-0.29253072444033	0
bin	-0.092401889103	0
bin	0.10772694623433	164
bin	0.30785578157167	18
bin	0.507984616909	0
bin	0.70811345224633	0
bin	0.90824228758367	0
bin	1.108371122921	0
bin	1.3084999582583	0
bin	1.5086287935957	0
bin	1.708757628933	0
bin	1.9088864642703	0
bin	2.1090152996077	0
bin	2.309144134945	0
bin	2.5092729702823	0
bin	2.7094018056197	0
bin	2.909530640957	2
bin	3.1096594762943	3
bin	3.3097883116317	0
bin	3.509917146969	0
bin	3.7100459823063	0
bin	3.9101748176437	0
bin	4.110303652981	0
bin	4.3104324883183	0
bin	4.5105613236557	0
bin	4.710690158993	1
scalar ExamTaskNetwork.Internet.tcpApp[1] 	rcvdPk:count 	0
attr interpolationmode  none
attr source  rcvdPk
attr title  "packets received, count"
scalar ExamTaskNetwork.Internet.tcpApp[1] 	rcvdPk:sum(packetBytes) 	0
attr interpolationmode  none
attr source  rcvdPk
attr title  "packets received, sum(packetBytes)"
statistic ExamTaskNetwork.Internet.tcpApp[1] 	endToEndDelay:histogram
field count 0
field mean -nan
field stddev -nan
field sum 0
field sqrsum 0
field min -nan
field max -nan
attr interpolationmode  none
attr source  messageAge(rcvdPk)
attr title  "end-to-end delay, histogram"
attr unit  s
bin	-INF	0
bin	-0.5	0
bin	-0.46666666666667	0
bin	-0.43333333333333	0
bin	-0.4	0
bin	-0.36666666666667	0
bin	-0.33333333333333	0
bin	-0.3	0
bin	-0.26666666666667	0
bin	-0.23333333333333	0
bin	-0.2	0
bin	-0.16666666666667	0
bin	-0.13333333333333	0
bin	-0.1	0
bin	-0.066666666666667	0
bin	-0.033333333333333	0
bin	0	0
bin	0.033333333333333	0
bin	0.066666666666667	0
bin	0.1	0
bin	0.13333333333333	0
bin	0.16666666666667	0
bin	0.2	0
bin	0.23333333333333	0
bin	0.26666666666667	0
bin	0.3	0
bin	0.33333333333333	0
bin	0.36666666666667	0
bin	0.4	0
bin	0.43333333333333	0
bin	0.46666666666667	0
bin	0.5	0
