version 2
run ExamTaskNetwork-106-20160820-16:34:16-14489
attr configname ExamTaskNetwork
attr datetime 20160820-16:34:16
attr experiment ExamTaskNetwork
attr inifile omnetpp.ini
attr iterationvars "$simtime=1000, $0=50"
attr iterationvars2 "$simtime=1000, $0=50, $repetition=1"
attr measurement "$simtime=1000, $0=50"
attr network ExamTaskNetwork
attr processid 14489
attr repetition 1
attr replication #1
attr resultdir results
attr runnumber 106
attr seedset 106
attr simtime 1000

scalar . 	simtime 	1000
scalar ExamTaskNetwork.ConferenceLaptop.networkLayer.arp 	initiatedARPResolution:count 	9
attr title  "ARP initiated resolutions, count"
scalar ExamTaskNetwork.ConferenceLaptop.networkLayer.arp 	sentReply:count 	8
attr title  "ARP replies sent, count"
scalar ExamTaskNetwork.ConferenceLaptop.networkLayer.arp 	sentReq:count 	9
attr title  "ARP request sent, count"
scalar ExamTaskNetwork.ConferenceLaptop.networkLayer.arp 	failedARPResolution:count 	0
attr title  "ARP failed resolutions, count"
scalar ExamTaskNetwork.ConferenceLaptop.networkLayer.arp 	completedARPResolution:count 	231
attr title  "ARP completed resolutions, count"
scalar ExamTaskNetwork.ConferenceLaptop.lo0.lo 	rcvdPkFromHL:count 	0
attr interpolationmode  none
attr source  packetReceivedFromUpper
attr title  "packets received from higher layer, count"
scalar ExamTaskNetwork.ConferenceLaptop.lo0.lo 	rcvdPkFromHL:sum(packetBytes) 	0
attr interpolationmode  none
attr source  packetReceivedFromUpper
attr title  "packets received from higher layer, sum(packetBytes)"
scalar ExamTaskNetwork.ConferenceLaptop.lo0.lo 	passedUpPk:count 	0
attr interpolationmode  none
attr source  packetSentToUpper
attr title  "packets passed to higher layer, count"
scalar ExamTaskNetwork.ConferenceLaptop.lo0.lo 	passedUpPk:sum(packetBytes) 	0
attr interpolationmode  none
attr source  packetSentToUpper
attr title  "packets passed to higher layer, sum(packetBytes)"
scalar ExamTaskNetwork.ConferenceLaptop.lo0.lo 	droppedPkBitError:count 	0
attr interpolationmode  none
attr source  dropPkBitError
attr title  "packets dropped/bit error, count"
scalar ExamTaskNetwork.ConferenceLaptop.lo0.lo 	droppedPkBitError:sum(packetBytes) 	0
attr interpolationmode  none
attr source  dropPkBitError
attr title  "packets dropped/bit error, sum(packetBytes)"
scalar ExamTaskNetwork.ConferenceLaptop.wlan[0].agent 	dropConfirm:count 	1
attr title  "dropped confirms, count"
scalar ExamTaskNetwork.ConferenceLaptop.wlan[0].agent 	acceptConfirm:count 	22
attr title  "accepted confirms, count"
scalar ExamTaskNetwork.ConferenceLaptop.wlan[0].agent 	sentRequest:count 	24
attr title  "sent requests, count"
scalar ExamTaskNetwork.ConferenceLaptop.wlan[0].mgmt 	dropPkByQueue:count 	0
attr interpolationmode  none
attr source  dropPkByQueue
attr title  "packets dropped by queue, count"
scalar ExamTaskNetwork.ConferenceLaptop.wlan[0].mgmt 	dropPkByQueue:sum(packetBytes) 	0
attr interpolationmode  none
attr source  dropPkByQueue
attr title  "packets dropped by queue, sum(packetBytes)"
scalar ExamTaskNetwork.ConferenceLaptop.wlan[0].mgmt 	dataQueueLen:max 	4
attr interpolationmode  sample-hold
attr title  "data queue length, max"
scalar ExamTaskNetwork.ConferenceLaptop.wlan[0].mgmt 	dataQueueLen:timeavg 	0.0019225251454311
attr interpolationmode  sample-hold
attr title  "data queue length, timeavg"
scalar ExamTaskNetwork.ConferenceLaptop.wlan[0].mac 	"number of received packets" 	24148
scalar ExamTaskNetwork.ConferenceLaptop.wlan[0].mac 	"number of collisions" 	66275
scalar ExamTaskNetwork.ConferenceLaptop.wlan[0].mac 	"number of internal collisions" 	0
scalar ExamTaskNetwork.ConferenceLaptop.wlan[0].mac 	"number of retry for AC 0" 	8059
scalar ExamTaskNetwork.ConferenceLaptop.wlan[0].mac 	"sent and received bits" 	291113952
scalar ExamTaskNetwork.ConferenceLaptop.wlan[0].mac 	"sent packet within AC 0" 	24791
scalar ExamTaskNetwork.ConferenceLaptop.wlan[0].mac 	"sent in TXOP " 	0
scalar ExamTaskNetwork.ConferenceLaptop.wlan[0].mac 	"sentWithoutRetry AC 0" 	18841
scalar ExamTaskNetwork.ConferenceLaptop.wlan[0].mac 	"numGivenUp AC 0" 	6
scalar ExamTaskNetwork.ConferenceLaptop.wlan[0].mac 	"numDropped AC 0" 	0
scalar ExamTaskNetwork.ConferenceLaptop.wlan[0].mac 	rcvdPkFromHL:count 	24806
attr interpolationmode  none
attr source  packetReceivedFromUpper
attr title  "packets received from higher layer, count"
scalar ExamTaskNetwork.ConferenceLaptop.wlan[0].mac 	rcvdPkFromHL:sum(packetBytes) 	36396628
attr interpolationmode  none
attr source  packetReceivedFromUpper
attr title  "packets received from higher layer, sum(packetBytes)"
scalar ExamTaskNetwork.ConferenceLaptop.wlan[0].mac 	passedUpPk:count 	34326
attr interpolationmode  none
attr source  packetSentToUpper
attr title  "packets passed to higher layer, count"
scalar ExamTaskNetwork.ConferenceLaptop.wlan[0].mac 	passedUpPk:sum(packetBytes) 	36235704
attr interpolationmode  none
attr source  packetSentToUpper
attr title  "packets passed to higher layer, sum(packetBytes)"
scalar ExamTaskNetwork.ConferenceLaptop.wlan[0].mac 	rcvdPkFromLL:count 	3694173
attr interpolationmode  none
attr source  packetReceivedFromLower
attr title  "packets received from lower layer, count"
scalar ExamTaskNetwork.ConferenceLaptop.wlan[0].mac 	rcvdPkFromLL:sum(packetBytes) 	1354307562
attr interpolationmode  none
attr source  packetReceivedFromLower
attr title  "packets received from lower layer, sum(packetBytes)"
scalar ExamTaskNetwork.ConferenceLaptop.wlan[0].mac 	sentDownPk:count 	57013
attr interpolationmode  none
attr source  packetSentToLower
attr title  "packets sent to lower layer, count"
scalar ExamTaskNetwork.ConferenceLaptop.wlan[0].mac 	sentDownPk:sum(packetBytes) 	48547182
attr interpolationmode  none
attr source  packetSentToLower
attr title  "packets sent to lower layer, sum(packetBytes)"
scalar ExamTaskNetwork.ConferenceLaptop.wlan[0].radio 	lossRate:min 	0
attr interpolationmode  backward-sample-hold
attr title  "packet loss rate, min"
scalar ExamTaskNetwork.ConferenceLaptop.wlan[0].radio 	lossRate:max 	0.3
attr interpolationmode  backward-sample-hold
attr title  "packet loss rate, max"
scalar ExamTaskNetwork.ConferenceLaptop.wlan[0].radio 	lossRate:timeavg 	0.017746055197798
attr interpolationmode  backward-sample-hold
attr title  "packet loss rate, timeavg"
statistic ExamTaskNetwork.ConferenceLaptop.wlan[0].radio 	channelNo:histogram
field count 1
field mean 0
field stddev -nan
field sum 0
field sqrsum 0
field min 0
field max 0
attr interpolationmode  sample-hold
attr title  "channel no, histogram"
bin	-INF	0
bin	-0.5	0
bin	-0.46666666666667	0
bin	-0.43333333333333	0
bin	-0.4	0
bin	-0.36666666666667	0
bin	-0.33333333333333	0
bin	-0.3	0
bin	-0.26666666666667	0
bin	-0.23333333333333	0
bin	-0.2	0
bin	-0.16666666666667	0
bin	-0.13333333333333	0
bin	-0.1	0
bin	-0.066666666666667	0
bin	-0.033333333333333	0
bin	0	1
bin	0.033333333333333	0
bin	0.066666666666667	0
bin	0.1	0
bin	0.13333333333333	0
bin	0.16666666666667	0
bin	0.2	0
bin	0.23333333333333	0
bin	0.26666666666667	0
bin	0.3	0
bin	0.33333333333333	0
bin	0.36666666666667	0
bin	0.4	0
bin	0.43333333333333	0
bin	0.46666666666667	0
bin	0.5	0
scalar ExamTaskNetwork.ConferenceLaptop.wlan[0].radio 	radioState:count 	7510965
attr interpolationmode  sample-hold
attr title  "radio state (enum), count"
scalar ExamTaskNetwork.ConferenceLaptop.wlan[0].radio 	bitrate:min 	54000000
attr interpolationmode  sample-hold
attr title  "tx bitrate, min"
attr unit  bps
scalar ExamTaskNetwork.ConferenceLaptop.wlan[0].radio 	bitrate:max 	54000000
attr interpolationmode  sample-hold
attr title  "tx bitrate, max"
attr unit  bps
scalar ExamTaskNetwork.ConferenceLaptop.wlan[0].radio 	bitrate:timeavg 	54000000
attr interpolationmode  sample-hold
attr title  "tx bitrate, timeavg"
attr unit  bps
scalar ExamTaskNetwork.ConferenceLaptop.udpApp[0] 	"packets sent" 	24963
scalar ExamTaskNetwork.ConferenceLaptop.udpApp[0] 	"packets received" 	23910
scalar ExamTaskNetwork.ConferenceLaptop.udpApp[0] 	lateRatio 	0.00029276454006322
scalar ExamTaskNetwork.ConferenceLaptop.udpApp[0] 	"discarded packets" 	7
statistic ExamTaskNetwork.ConferenceLaptop.udpApp[0] 	endToEndDelay:stats
field count 23910
field mean 0.050461672225479
field stddev 0.015955378511104
field sum 1206.5385829112
field sqrsum 66.970566737229
field min 0.01646312996
field max 0.141862082956
attr source  VoIPPacketDelay
attr title  "VoIP Packet End-to-End Delay, stats"
attr unit  s
scalar ExamTaskNetwork.ConferenceLaptop.udpApp[0] 	sentPk:count 	24963
attr interpolationmode  none
attr source  sentPk
attr title  "packets sent, count"
scalar ExamTaskNetwork.ConferenceLaptop.udpApp[0] 	sentPk:sum(packetBytes) 	34948200
attr interpolationmode  none
attr source  sentPk
attr title  "packets sent, sum(packetBytes)"
scalar ExamTaskNetwork.ConferenceLaptop.udpApp[0] 	rcvdPk:count 	23910
attr interpolationmode  none
attr source  rcvdPk
attr title  "packets received, count"
scalar ExamTaskNetwork.ConferenceLaptop.udpApp[0] 	rcvdPk:sum(packetBytes) 	33474000
attr interpolationmode  none
attr source  rcvdPk
attr title  "packets received, sum(packetBytes)"
statistic ExamTaskNetwork.ConferenceLaptop.udpApp[0] 	rcvdPkLifetime:stats
field count 23910
field mean 0.050461672225479
field stddev 0.015955378511104
field sum 1206.5385829112
field sqrsum 66.970566737229
field min 0.01646312996
field max 0.141862082956
attr interpolationmode  none
attr source  messageAge(rcvdPk)
attr title  "received packet lifetime, stats"
attr unit  s
scalar ExamTaskNetwork.ConferenceLaptop.udp 	droppedPkBadChecksum:count 	0
attr interpolationmode  none
attr title  "packets dropped (checksum error), count"
scalar ExamTaskNetwork.ConferenceLaptop.udp 	droppedPkWrongPort:count 	0
attr interpolationmode  none
attr title  "packets dropped (wrong port), count"
scalar ExamTaskNetwork.ConferenceLaptop.udp 	passedUpPk:count 	23910
attr interpolationmode  none
attr title  "packets passed up, count"
scalar ExamTaskNetwork.ConferenceLaptop.udp 	sentPk:count 	24963
attr interpolationmode  none
attr source  sentPk
attr title  "packets sent, count"
scalar ExamTaskNetwork.ConferenceLaptop.udp 	sentPk:sum(packetBytes) 	35147904
attr interpolationmode  none
attr source  sentPk
attr title  "packets sent, sum(packetBytes)"
scalar ExamTaskNetwork.ConferenceLaptop.udp 	rcvdPk:count 	23910
attr interpolationmode  none
attr source  rcvdPk
attr title  "packets received, count"
scalar ExamTaskNetwork.ConferenceLaptop.udp 	rcvdPk:sum(packetBytes) 	33665280
attr interpolationmode  none
attr source  rcvdPk
attr title  "packets received, sum(packetBytes)"
scalar ExamTaskNetwork.FTPLaptop.networkLayer.arp 	initiatedARPResolution:count 	9
attr title  "ARP initiated resolutions, count"
scalar ExamTaskNetwork.FTPLaptop.networkLayer.arp 	sentReply:count 	6
attr title  "ARP replies sent, count"
scalar ExamTaskNetwork.FTPLaptop.networkLayer.arp 	sentReq:count 	13
attr title  "ARP request sent, count"
scalar ExamTaskNetwork.FTPLaptop.networkLayer.arp 	failedARPResolution:count 	0
attr title  "ARP failed resolutions, count"
scalar ExamTaskNetwork.FTPLaptop.networkLayer.arp 	completedARPResolution:count 	231
attr title  "ARP completed resolutions, count"
scalar ExamTaskNetwork.FTPLaptop.lo0.lo 	rcvdPkFromHL:count 	0
attr interpolationmode  none
attr source  packetReceivedFromUpper
attr title  "packets received from higher layer, count"
scalar ExamTaskNetwork.FTPLaptop.lo0.lo 	rcvdPkFromHL:sum(packetBytes) 	0
attr interpolationmode  none
attr source  packetReceivedFromUpper
attr title  "packets received from higher layer, sum(packetBytes)"
scalar ExamTaskNetwork.FTPLaptop.lo0.lo 	passedUpPk:count 	0
attr interpolationmode  none
attr source  packetSentToUpper
attr title  "packets passed to higher layer, count"
scalar ExamTaskNetwork.FTPLaptop.lo0.lo 	passedUpPk:sum(packetBytes) 	0
attr interpolationmode  none
attr source  packetSentToUpper
attr title  "packets passed to higher layer, sum(packetBytes)"
scalar ExamTaskNetwork.FTPLaptop.lo0.lo 	droppedPkBitError:count 	0
attr interpolationmode  none
attr source  dropPkBitError
attr title  "packets dropped/bit error, count"
scalar ExamTaskNetwork.FTPLaptop.lo0.lo 	droppedPkBitError:sum(packetBytes) 	0
attr interpolationmode  none
attr source  dropPkBitError
attr title  "packets dropped/bit error, sum(packetBytes)"
scalar ExamTaskNetwork.FTPLaptop.wlan[0].agent 	dropConfirm:count 	0
attr title  "dropped confirms, count"
scalar ExamTaskNetwork.FTPLaptop.wlan[0].agent 	acceptConfirm:count 	21
attr title  "accepted confirms, count"
scalar ExamTaskNetwork.FTPLaptop.wlan[0].agent 	sentRequest:count 	22
attr title  "sent requests, count"
scalar ExamTaskNetwork.FTPLaptop.wlan[0].mgmt 	dropPkByQueue:count 	961
attr interpolationmode  none
attr source  dropPkByQueue
attr title  "packets dropped by queue, count"
scalar ExamTaskNetwork.FTPLaptop.wlan[0].mgmt 	dropPkByQueue:sum(packetBytes) 	1487628
attr interpolationmode  none
attr source  dropPkByQueue
attr title  "packets dropped by queue, sum(packetBytes)"
scalar ExamTaskNetwork.FTPLaptop.wlan[0].mgmt 	dataQueueLen:max 	50
attr interpolationmode  sample-hold
attr title  "data queue length, max"
scalar ExamTaskNetwork.FTPLaptop.wlan[0].mgmt 	dataQueueLen:timeavg 	2.8070064360032
attr interpolationmode  sample-hold
attr title  "data queue length, timeavg"
scalar ExamTaskNetwork.FTPLaptop.wlan[0].mac 	"number of received packets" 	303552
scalar ExamTaskNetwork.FTPLaptop.wlan[0].mac 	"number of collisions" 	9994
scalar ExamTaskNetwork.FTPLaptop.wlan[0].mac 	"number of internal collisions" 	0
scalar ExamTaskNetwork.FTPLaptop.wlan[0].mac 	"number of retry for AC 0" 	64239
scalar ExamTaskNetwork.FTPLaptop.wlan[0].mac 	"sent and received bits" 	4164375376
scalar ExamTaskNetwork.FTPLaptop.wlan[0].mac 	"sent packet within AC 0" 	336367
scalar ExamTaskNetwork.FTPLaptop.wlan[0].mac 	"sent in TXOP " 	0
scalar ExamTaskNetwork.FTPLaptop.wlan[0].mac 	"sentWithoutRetry AC 0" 	285402
scalar ExamTaskNetwork.FTPLaptop.wlan[0].mac 	"numGivenUp AC 0" 	3
scalar ExamTaskNetwork.FTPLaptop.wlan[0].mac 	"numDropped AC 0" 	0
scalar ExamTaskNetwork.FTPLaptop.wlan[0].mac 	rcvdPkFromHL:count 	336378
attr interpolationmode  none
attr source  packetReceivedFromUpper
attr title  "packets received from higher layer, count"
scalar ExamTaskNetwork.FTPLaptop.wlan[0].mac 	rcvdPkFromHL:sum(packetBytes) 	520551566
attr interpolationmode  none
attr source  packetReceivedFromUpper
attr title  "packets received from higher layer, sum(packetBytes)"
scalar ExamTaskNetwork.FTPLaptop.wlan[0].mac 	passedUpPk:count 	313728
attr interpolationmode  none
attr source  packetSentToUpper
attr title  "packets passed to higher layer, count"
scalar ExamTaskNetwork.FTPLaptop.wlan[0].mac 	passedUpPk:sum(packetBytes) 	25675084
attr interpolationmode  none
attr source  packetSentToUpper
attr title  "packets passed to higher layer, sum(packetBytes)"
scalar ExamTaskNetwork.FTPLaptop.wlan[0].mac 	rcvdPkFromLL:count 	3047017
attr interpolationmode  none
attr source  packetReceivedFromLower
attr title  "packets received from lower layer, count"
scalar ExamTaskNetwork.FTPLaptop.wlan[0].mac 	rcvdPkFromLL:sum(packetBytes) 	806106917
attr interpolationmode  none
attr source  packetReceivedFromLower
attr title  "packets received from lower layer, sum(packetBytes)"
scalar ExamTaskNetwork.FTPLaptop.wlan[0].mac 	sentDownPk:count 	704169
attr interpolationmode  none
attr source  packetSentToLower
attr title  "packets sent to lower layer, count"
scalar ExamTaskNetwork.FTPLaptop.wlan[0].mac 	sentDownPk:sum(packetBytes) 	624195806
attr interpolationmode  none
attr source  packetSentToLower
attr title  "packets sent to lower layer, sum(packetBytes)"
scalar ExamTaskNetwork.FTPLaptop.wlan[0].radio 	lossRate:min 	0
attr interpolationmode  backward-sample-hold
attr title  "packet loss rate, min"
scalar ExamTaskNetwork.FTPLaptop.wlan[0].radio 	lossRate:max 	0.28
attr interpolationmode  backward-sample-hold
attr title  "packet loss rate, max"
scalar ExamTaskNetwork.FTPLaptop.wlan[0].radio 	lossRate:timeavg 	0.0032178191344801
attr interpolationmode  backward-sample-hold
attr title  "packet loss rate, timeavg"
statistic ExamTaskNetwork.FTPLaptop.wlan[0].radio 	channelNo:histogram
field count 1
field mean 0
field stddev -nan
field sum 0
field sqrsum 0
field min 0
field max 0
attr interpolationmode  sample-hold
attr title  "channel no, histogram"
bin	-INF	0
bin	-0.5	0
bin	-0.46666666666667	0
bin	-0.43333333333333	0
bin	-0.4	0
bin	-0.36666666666667	0
bin	-0.33333333333333	0
bin	-0.3	0
bin	-0.26666666666667	0
bin	-0.23333333333333	0
bin	-0.2	0
bin	-0.16666666666667	0
bin	-0.13333333333333	0
bin	-0.1	0
bin	-0.066666666666667	0
bin	-0.033333333333333	0
bin	0	1
bin	0.033333333333333	0
bin	0.066666666666667	0
bin	0.1	0
bin	0.13333333333333	0
bin	0.16666666666667	0
bin	0.2	0
bin	0.23333333333333	0
bin	0.26666666666667	0
bin	0.3	0
bin	0.33333333333333	0
bin	0.36666666666667	0
bin	0.4	0
bin	0.43333333333333	0
bin	0.46666666666667	0
bin	0.5	0
scalar ExamTaskNetwork.FTPLaptop.wlan[0].radio 	radioState:count 	7542043
attr interpolationmode  sample-hold
attr title  "radio state (enum), count"
scalar ExamTaskNetwork.FTPLaptop.wlan[0].radio 	bitrate:min 	54000000
attr interpolationmode  sample-hold
attr title  "tx bitrate, min"
attr unit  bps
scalar ExamTaskNetwork.FTPLaptop.wlan[0].radio 	bitrate:max 	54000000
attr interpolationmode  sample-hold
attr title  "tx bitrate, max"
attr unit  bps
scalar ExamTaskNetwork.FTPLaptop.wlan[0].radio 	bitrate:timeavg 	54000000
attr interpolationmode  sample-hold
attr title  "tx bitrate, timeavg"
attr unit  bps
scalar ExamTaskNetwork.FTPLaptop.tcpApp[0] 	bytesRcvd 	0
scalar ExamTaskNetwork.FTPLaptop.tcpApp[0] 	bytesSent 	1778384896
scalar ExamTaskNetwork.FTPLaptop.tcpApp[0] 	sentPk:count 	1
attr interpolationmode  none
attr source  sentPk
attr title  "packets sent, count"
scalar ExamTaskNetwork.FTPLaptop.tcpApp[0] 	sentPk:sum(packetBytes) 	1778384896
attr interpolationmode  none
attr source  sentPk
attr title  "packets sent, sum(packetBytes)"
scalar ExamTaskNetwork.FTPLaptop.tcpApp[0] 	rcvdPk:count 	0
attr interpolationmode  none
attr source  rcvdPk
attr title  "packets received, count"
scalar ExamTaskNetwork.FTPLaptop.tcpApp[0] 	rcvdPk:sum(packetBytes) 	0
attr interpolationmode  none
attr source  rcvdPk
attr title  "packets received, sum(packetBytes)"
statistic ExamTaskNetwork.FTPLaptop.tcpApp[0] 	endToEndDelay:histogram
field count 0
field mean -nan
field stddev -nan
field sum 0
field sqrsum 0
field min -nan
field max -nan
attr interpolationmode  none
attr source  messageAge(rcvdPk)
attr title  "end-to-end delay, histogram"
attr unit  s
bin	-INF	0
bin	-0.5	0
bin	-0.46666666666667	0
bin	-0.43333333333333	0
bin	-0.4	0
bin	-0.36666666666667	0
bin	-0.33333333333333	0
bin	-0.3	0
bin	-0.26666666666667	0
bin	-0.23333333333333	0
bin	-0.2	0
bin	-0.16666666666667	0
bin	-0.13333333333333	0
bin	-0.1	0
bin	-0.066666666666667	0
bin	-0.033333333333333	0
bin	0	0
bin	0.033333333333333	0
bin	0.066666666666667	0
bin	0.1	0
bin	0.13333333333333	0
bin	0.16666666666667	0
bin	0.2	0
bin	0.23333333333333	0
bin	0.26666666666667	0
bin	0.3	0
bin	0.33333333333333	0
bin	0.36666666666667	0
bin	0.4	0
bin	0.43333333333333	0
bin	0.46666666666667	0
bin	0.5	0
scalar ExamTaskNetwork.BrowsingLaptop[0].networkLayer.arp 	initiatedARPResolution:count 	9
attr title  "ARP initiated resolutions, count"
scalar ExamTaskNetwork.BrowsingLaptop[0].networkLayer.arp 	sentReply:count 	5
attr title  "ARP replies sent, count"
scalar ExamTaskNetwork.BrowsingLaptop[0].networkLayer.arp 	sentReq:count 	13
attr title  "ARP request sent, count"
scalar ExamTaskNetwork.BrowsingLaptop[0].networkLayer.arp 	failedARPResolution:count 	1
attr title  "ARP failed resolutions, count"
scalar ExamTaskNetwork.BrowsingLaptop[0].networkLayer.arp 	completedARPResolution:count 	193
attr title  "ARP completed resolutions, count"
scalar ExamTaskNetwork.BrowsingLaptop[0].lo0.lo 	rcvdPkFromHL:count 	0
attr interpolationmode  none
attr source  packetReceivedFromUpper
attr title  "packets received from higher layer, count"
scalar ExamTaskNetwork.BrowsingLaptop[0].lo0.lo 	rcvdPkFromHL:sum(packetBytes) 	0
attr interpolationmode  none
attr source  packetReceivedFromUpper
attr title  "packets received from higher layer, sum(packetBytes)"
scalar ExamTaskNetwork.BrowsingLaptop[0].lo0.lo 	passedUpPk:count 	0
attr interpolationmode  none
attr source  packetSentToUpper
attr title  "packets passed to higher layer, count"
scalar ExamTaskNetwork.BrowsingLaptop[0].lo0.lo 	passedUpPk:sum(packetBytes) 	0
attr interpolationmode  none
attr source  packetSentToUpper
attr title  "packets passed to higher layer, sum(packetBytes)"
scalar ExamTaskNetwork.BrowsingLaptop[0].lo0.lo 	droppedPkBitError:count 	0
attr interpolationmode  none
attr source  dropPkBitError
attr title  "packets dropped/bit error, count"
scalar ExamTaskNetwork.BrowsingLaptop[0].lo0.lo 	droppedPkBitError:sum(packetBytes) 	0
attr interpolationmode  none
attr source  dropPkBitError
attr title  "packets dropped/bit error, sum(packetBytes)"
scalar ExamTaskNetwork.BrowsingLaptop[0].wlan[0].agent 	dropConfirm:count 	0
attr title  "dropped confirms, count"
scalar ExamTaskNetwork.BrowsingLaptop[0].wlan[0].agent 	acceptConfirm:count 	21
attr title  "accepted confirms, count"
scalar ExamTaskNetwork.BrowsingLaptop[0].wlan[0].agent 	sentRequest:count 	22
attr title  "sent requests, count"
scalar ExamTaskNetwork.BrowsingLaptop[0].wlan[0].mgmt 	dropPkByQueue:count 	0
attr interpolationmode  none
attr source  dropPkByQueue
attr title  "packets dropped by queue, count"
scalar ExamTaskNetwork.BrowsingLaptop[0].wlan[0].mgmt 	dropPkByQueue:sum(packetBytes) 	0
attr interpolationmode  none
attr source  dropPkByQueue
attr title  "packets dropped by queue, sum(packetBytes)"
scalar ExamTaskNetwork.BrowsingLaptop[0].wlan[0].mgmt 	dataQueueLen:max 	1
attr interpolationmode  sample-hold
attr title  "data queue length, max"
scalar ExamTaskNetwork.BrowsingLaptop[0].wlan[0].mgmt 	dataQueueLen:timeavg 	3.7075742409222e-06
attr interpolationmode  sample-hold
attr title  "data queue length, timeavg"
scalar ExamTaskNetwork.BrowsingLaptop[0].wlan[0].mac 	"number of received packets" 	14911
scalar ExamTaskNetwork.BrowsingLaptop[0].wlan[0].mac 	"number of collisions" 	43154
scalar ExamTaskNetwork.BrowsingLaptop[0].wlan[0].mac 	"number of internal collisions" 	0
scalar ExamTaskNetwork.BrowsingLaptop[0].wlan[0].mac 	"number of retry for AC 0" 	57
scalar ExamTaskNetwork.BrowsingLaptop[0].wlan[0].mac 	"sent and received bits" 	5816160
scalar ExamTaskNetwork.BrowsingLaptop[0].wlan[0].mac 	"sent packet within AC 0" 	7258
scalar ExamTaskNetwork.BrowsingLaptop[0].wlan[0].mac 	"sent in TXOP " 	0
scalar ExamTaskNetwork.BrowsingLaptop[0].wlan[0].mac 	"sentWithoutRetry AC 0" 	7224
scalar ExamTaskNetwork.BrowsingLaptop[0].wlan[0].mac 	"numGivenUp AC 0" 	0
scalar ExamTaskNetwork.BrowsingLaptop[0].wlan[0].mac 	"numDropped AC 0" 	0
scalar ExamTaskNetwork.BrowsingLaptop[0].wlan[0].mac 	rcvdPkFromHL:count 	7266
attr interpolationmode  none
attr source  packetReceivedFromUpper
attr title  "packets received from higher layer, count"
scalar ExamTaskNetwork.BrowsingLaptop[0].wlan[0].mac 	rcvdPkFromHL:sum(packetBytes) 	727020
attr interpolationmode  none
attr source  packetReceivedFromUpper
attr title  "packets received from higher layer, sum(packetBytes)"
scalar ExamTaskNetwork.BrowsingLaptop[0].wlan[0].mac 	passedUpPk:count 	25085
attr interpolationmode  none
attr source  packetSentToUpper
attr title  "packets passed to higher layer, count"
scalar ExamTaskNetwork.BrowsingLaptop[0].wlan[0].mac 	passedUpPk:sum(packetBytes) 	13240188
attr interpolationmode  none
attr source  packetSentToUpper
attr title  "packets passed to higher layer, sum(packetBytes)"
scalar ExamTaskNetwork.BrowsingLaptop[0].wlan[0].mac 	rcvdPkFromLL:count 	3728952
attr interpolationmode  none
attr source  packetReceivedFromLower
attr title  "packets received from lower layer, count"
scalar ExamTaskNetwork.BrowsingLaptop[0].wlan[0].mac 	rcvdPkFromLL:sum(packetBytes) 	1399820857
attr interpolationmode  none
attr source  packetReceivedFromLower
attr title  "packets received from lower layer, sum(packetBytes)"
scalar ExamTaskNetwork.BrowsingLaptop[0].wlan[0].mac 	sentDownPk:count 	22234
attr interpolationmode  none
attr source  packetSentToLower
attr title  "packets sent to lower layer, count"
scalar ExamTaskNetwork.BrowsingLaptop[0].wlan[0].mac 	sentDownPk:sum(packetBytes) 	952026
attr interpolationmode  none
attr source  packetSentToLower
attr title  "packets sent to lower layer, sum(packetBytes)"
scalar ExamTaskNetwork.BrowsingLaptop[0].wlan[0].radio 	lossRate:min 	0
attr interpolationmode  backward-sample-hold
attr title  "packet loss rate, min"
scalar ExamTaskNetwork.BrowsingLaptop[0].wlan[0].radio 	lossRate:max 	0.28
attr interpolationmode  backward-sample-hold
attr title  "packet loss rate, max"
scalar ExamTaskNetwork.BrowsingLaptop[0].wlan[0].radio 	lossRate:timeavg 	0.011424719862151
attr interpolationmode  backward-sample-hold
attr title  "packet loss rate, timeavg"
statistic ExamTaskNetwork.BrowsingLaptop[0].wlan[0].radio 	channelNo:histogram
field count 1
field mean 0
field stddev -nan
field sum 0
field sqrsum 0
field min 0
field max 0
attr interpolationmode  sample-hold
attr title  "channel no, histogram"
bin	-INF	0
bin	-0.5	0
bin	-0.46666666666667	0
bin	-0.43333333333333	0
bin	-0.4	0
bin	-0.36666666666667	0
bin	-0.33333333333333	0
bin	-0.3	0
bin	-0.26666666666667	0
bin	-0.23333333333333	0
bin	-0.2	0
bin	-0.16666666666667	0
bin	-0.13333333333333	0
bin	-0.1	0
bin	-0.066666666666667	0
bin	-0.033333333333333	0
bin	0	1
bin	0.033333333333333	0
bin	0.066666666666667	0
bin	0.1	0
bin	0.13333333333333	0
bin	0.16666666666667	0
bin	0.2	0
bin	0.23333333333333	0
bin	0.26666666666667	0
bin	0.3	0
bin	0.33333333333333	0
bin	0.36666666666667	0
bin	0.4	0
bin	0.43333333333333	0
bin	0.46666666666667	0
bin	0.5	0
scalar ExamTaskNetwork.BrowsingLaptop[0].wlan[0].radio 	radioState:count 	7502445
attr interpolationmode  sample-hold
attr title  "radio state (enum), count"
scalar ExamTaskNetwork.BrowsingLaptop[0].wlan[0].radio 	bitrate:min 	54000000
attr interpolationmode  sample-hold
attr title  "tx bitrate, min"
attr unit  bps
scalar ExamTaskNetwork.BrowsingLaptop[0].wlan[0].radio 	bitrate:max 	54000000
attr interpolationmode  sample-hold
attr title  "tx bitrate, max"
attr unit  bps
scalar ExamTaskNetwork.BrowsingLaptop[0].wlan[0].radio 	bitrate:timeavg 	54000000
attr interpolationmode  sample-hold
attr title  "tx bitrate, timeavg"
attr unit  bps
scalar ExamTaskNetwork.BrowsingLaptop[0].tcpApp[0] 	numActiveSessions:max 	1
attr interpolationmode  sample-hold
attr source  sum(connect)
attr title  "number of active sessions, max"
scalar ExamTaskNetwork.BrowsingLaptop[0].tcpApp[0] 	numActiveSessions:timeavg 	0.67179965065093
attr interpolationmode  sample-hold
attr source  sum(connect)
attr title  "number of active sessions, timeavg"
scalar ExamTaskNetwork.BrowsingLaptop[0].tcpApp[0] 	numSessions:last 	16
attr source  sum(connect+1)/2
attr title  "total number of sessions, last"
scalar ExamTaskNetwork.BrowsingLaptop[0].tcpApp[0] 	sentPk:count 	16
attr interpolationmode  none
attr source  sentPk
attr title  "packets sent, count"
scalar ExamTaskNetwork.BrowsingLaptop[0].tcpApp[0] 	sentPk:sum(packetBytes) 	131072
attr interpolationmode  none
attr source  sentPk
attr title  "packets sent, sum(packetBytes)"
scalar ExamTaskNetwork.BrowsingLaptop[0].tcpApp[0] 	rcvdPk:count 	15
attr interpolationmode  none
attr source  rcvdPk
attr title  "packets received, count"
scalar ExamTaskNetwork.BrowsingLaptop[0].tcpApp[0] 	rcvdPk:sum(packetBytes) 	8937102
attr interpolationmode  none
attr source  rcvdPk
attr title  "packets received, sum(packetBytes)"
statistic ExamTaskNetwork.BrowsingLaptop[0].tcpApp[0] 	endToEndDelay:histogram
field count 15
field mean 38.451358124803
field stddev 25.248348261465
field sum 576.77037187204
field sqrsum 31102.311383678
field min 3.019770293597
field max 92.781727273328
attr interpolationmode  none
attr source  messageAge(rcvdPk)
attr title  "end-to-end delay, histogram"
attr unit  s
bin	-INF	0
bin	-41.861208196268	0
bin	-35.877077730953	0
bin	-29.892947265638	0
bin	-23.908816800322	0
bin	-17.924686335007	0
bin	-11.940555869691	0
bin	-5.9564254043761	0
bin	0.027705060939304	1
bin	6.0118355262547	2
bin	11.99596599157	1
bin	17.980096456886	0
bin	23.964226922201	2
bin	29.948357387516	2
bin	35.932487852832	1
bin	41.916618318147	0
bin	47.900748783463	2
bin	53.884879248778	0
bin	59.869009714093	2
bin	65.853140179409	1
bin	71.837270644724	0
bin	77.82140111004	0
bin	83.805531575355	0
bin	89.78966204067	1
bin	95.773792505986	0
bin	101.7579229713	0
bin	107.74205343662	0
bin	113.72618390193	0
bin	119.71031436725	0
bin	125.69444483256	0
bin	131.67857529788	0
bin	137.66270576319	0
scalar ExamTaskNetwork.BrowsingLaptop[1].networkLayer.arp 	initiatedARPResolution:count 	8
attr title  "ARP initiated resolutions, count"
scalar ExamTaskNetwork.BrowsingLaptop[1].networkLayer.arp 	sentReply:count 	5
attr title  "ARP replies sent, count"
scalar ExamTaskNetwork.BrowsingLaptop[1].networkLayer.arp 	sentReq:count 	9
attr title  "ARP request sent, count"
scalar ExamTaskNetwork.BrowsingLaptop[1].networkLayer.arp 	failedARPResolution:count 	0
attr title  "ARP failed resolutions, count"
scalar ExamTaskNetwork.BrowsingLaptop[1].networkLayer.arp 	completedARPResolution:count 	237
attr title  "ARP completed resolutions, count"
scalar ExamTaskNetwork.BrowsingLaptop[1].lo0.lo 	rcvdPkFromHL:count 	0
attr interpolationmode  none
attr source  packetReceivedFromUpper
attr title  "packets received from higher layer, count"
scalar ExamTaskNetwork.BrowsingLaptop[1].lo0.lo 	rcvdPkFromHL:sum(packetBytes) 	0
attr interpolationmode  none
attr source  packetReceivedFromUpper
attr title  "packets received from higher layer, sum(packetBytes)"
scalar ExamTaskNetwork.BrowsingLaptop[1].lo0.lo 	passedUpPk:count 	0
attr interpolationmode  none
attr source  packetSentToUpper
attr title  "packets passed to higher layer, count"
scalar ExamTaskNetwork.BrowsingLaptop[1].lo0.lo 	passedUpPk:sum(packetBytes) 	0
attr interpolationmode  none
attr source  packetSentToUpper
attr title  "packets passed to higher layer, sum(packetBytes)"
scalar ExamTaskNetwork.BrowsingLaptop[1].lo0.lo 	droppedPkBitError:count 	0
attr interpolationmode  none
attr source  dropPkBitError
attr title  "packets dropped/bit error, count"
scalar ExamTaskNetwork.BrowsingLaptop[1].lo0.lo 	droppedPkBitError:sum(packetBytes) 	0
attr interpolationmode  none
attr source  dropPkBitError
attr title  "packets dropped/bit error, sum(packetBytes)"
scalar ExamTaskNetwork.BrowsingLaptop[1].wlan[0].agent 	dropConfirm:count 	0
attr title  "dropped confirms, count"
scalar ExamTaskNetwork.BrowsingLaptop[1].wlan[0].agent 	acceptConfirm:count 	21
attr title  "accepted confirms, count"
scalar ExamTaskNetwork.BrowsingLaptop[1].wlan[0].agent 	sentRequest:count 	22
attr title  "sent requests, count"
scalar ExamTaskNetwork.BrowsingLaptop[1].wlan[0].mgmt 	dropPkByQueue:count 	307
attr interpolationmode  none
attr source  dropPkByQueue
attr title  "packets dropped by queue, count"
scalar ExamTaskNetwork.BrowsingLaptop[1].wlan[0].mgmt 	dropPkByQueue:sum(packetBytes) 	30076
attr interpolationmode  none
attr source  dropPkByQueue
attr title  "packets dropped by queue, sum(packetBytes)"
scalar ExamTaskNetwork.BrowsingLaptop[1].wlan[0].mgmt 	dataQueueLen:max 	50
attr interpolationmode  sample-hold
attr title  "data queue length, max"
scalar ExamTaskNetwork.BrowsingLaptop[1].wlan[0].mgmt 	dataQueueLen:timeavg 	0.01815031781467
attr interpolationmode  sample-hold
attr title  "data queue length, timeavg"
scalar ExamTaskNetwork.BrowsingLaptop[1].wlan[0].mac 	"number of received packets" 	19001
scalar ExamTaskNetwork.BrowsingLaptop[1].wlan[0].mac 	"number of collisions" 	45644
scalar ExamTaskNetwork.BrowsingLaptop[1].wlan[0].mac 	"number of internal collisions" 	0
scalar ExamTaskNetwork.BrowsingLaptop[1].wlan[0].mac 	"number of retry for AC 0" 	297
scalar ExamTaskNetwork.BrowsingLaptop[1].wlan[0].mac 	"sent and received bits" 	7732560
scalar ExamTaskNetwork.BrowsingLaptop[1].wlan[0].mac 	"sent packet within AC 0" 	9970
scalar ExamTaskNetwork.BrowsingLaptop[1].wlan[0].mac 	"sent in TXOP " 	0
scalar ExamTaskNetwork.BrowsingLaptop[1].wlan[0].mac 	"sentWithoutRetry AC 0" 	9719
scalar ExamTaskNetwork.BrowsingLaptop[1].wlan[0].mac 	"numGivenUp AC 0" 	0
scalar ExamTaskNetwork.BrowsingLaptop[1].wlan[0].mac 	"numDropped AC 0" 	0
scalar ExamTaskNetwork.BrowsingLaptop[1].wlan[0].mac 	rcvdPkFromHL:count 	9978
attr interpolationmode  none
attr source  packetReceivedFromUpper
attr title  "packets received from higher layer, count"
scalar ExamTaskNetwork.BrowsingLaptop[1].wlan[0].mac 	rcvdPkFromHL:sum(packetBytes) 	966570
attr interpolationmode  none
attr source  packetReceivedFromUpper
attr title  "packets received from higher layer, sum(packetBytes)"
scalar ExamTaskNetwork.BrowsingLaptop[1].wlan[0].mac 	passedUpPk:count 	29183
attr interpolationmode  none
attr source  packetSentToUpper
attr title  "packets passed to higher layer, count"
scalar ExamTaskNetwork.BrowsingLaptop[1].wlan[0].mac 	passedUpPk:sum(packetBytes) 	16887072
attr interpolationmode  none
attr source  packetSentToUpper
attr title  "packets passed to higher layer, sum(packetBytes)"
scalar ExamTaskNetwork.BrowsingLaptop[1].wlan[0].mac 	rcvdPkFromLL:count 	3721910
attr interpolationmode  none
attr source  packetReceivedFromLower
attr title  "packets received from lower layer, count"
scalar ExamTaskNetwork.BrowsingLaptop[1].wlan[0].mac 	rcvdPkFromLL:sum(packetBytes) 	1399269557
attr interpolationmode  none
attr source  packetReceivedFromLower
attr title  "packets received from lower layer, sum(packetBytes)"
scalar ExamTaskNetwork.BrowsingLaptop[1].wlan[0].mac 	sentDownPk:count 	29276
attr interpolationmode  none
attr source  packetSentToLower
attr title  "packets sent to lower layer, count"
scalar ExamTaskNetwork.BrowsingLaptop[1].wlan[0].mac 	sentDownPk:sum(packetBytes) 	1290000
attr interpolationmode  none
attr source  packetSentToLower
attr title  "packets sent to lower layer, sum(packetBytes)"
scalar ExamTaskNetwork.BrowsingLaptop[1].wlan[0].radio 	lossRate:min 	0
attr interpolationmode  backward-sample-hold
attr title  "packet loss rate, min"
scalar ExamTaskNetwork.BrowsingLaptop[1].wlan[0].radio 	lossRate:max 	0.28
attr interpolationmode  backward-sample-hold
attr title  "packet loss rate, max"
scalar ExamTaskNetwork.BrowsingLaptop[1].wlan[0].radio 	lossRate:timeavg 	0.012109274402525
attr interpolationmode  backward-sample-hold
attr title  "packet loss rate, timeavg"
statistic ExamTaskNetwork.BrowsingLaptop[1].wlan[0].radio 	channelNo:histogram
field count 1
field mean 0
field stddev -nan
field sum 0
field sqrsum 0
field min 0
field max 0
attr interpolationmode  sample-hold
attr title  "channel no, histogram"
bin	-INF	0
bin	-0.5	0
bin	-0.46666666666667	0
bin	-0.43333333333333	0
bin	-0.4	0
bin	-0.36666666666667	0
bin	-0.33333333333333	0
bin	-0.3	0
bin	-0.26666666666667	0
bin	-0.23333333333333	0
bin	-0.2	0
bin	-0.16666666666667	0
bin	-0.13333333333333	0
bin	-0.1	0
bin	-0.066666666666667	0
bin	-0.033333333333333	0
bin	0	1
bin	0.033333333333333	0
bin	0.066666666666667	0
bin	0.1	0
bin	0.13333333333333	0
bin	0.16666666666667	0
bin	0.2	0
bin	0.23333333333333	0
bin	0.26666666666667	0
bin	0.3	0
bin	0.33333333333333	0
bin	0.36666666666667	0
bin	0.4	0
bin	0.43333333333333	0
bin	0.46666666666667	0
bin	0.5	0
scalar ExamTaskNetwork.BrowsingLaptop[1].wlan[0].radio 	radioState:count 	7502731
attr interpolationmode  sample-hold
attr title  "radio state (enum), count"
scalar ExamTaskNetwork.BrowsingLaptop[1].wlan[0].radio 	bitrate:min 	54000000
attr interpolationmode  sample-hold
attr title  "tx bitrate, min"
attr unit  bps
scalar ExamTaskNetwork.BrowsingLaptop[1].wlan[0].radio 	bitrate:max 	54000000
attr interpolationmode  sample-hold
attr title  "tx bitrate, max"
attr unit  bps
scalar ExamTaskNetwork.BrowsingLaptop[1].wlan[0].radio 	bitrate:timeavg 	54000000
attr interpolationmode  sample-hold
attr title  "tx bitrate, timeavg"
attr unit  bps
scalar ExamTaskNetwork.BrowsingLaptop[1].tcpApp[0] 	numActiveSessions:max 	1
attr interpolationmode  sample-hold
attr source  sum(connect)
attr title  "number of active sessions, max"
scalar ExamTaskNetwork.BrowsingLaptop[1].tcpApp[0] 	numActiveSessions:timeavg 	0.68418834518507
attr interpolationmode  sample-hold
attr source  sum(connect)
attr title  "number of active sessions, timeavg"
scalar ExamTaskNetwork.BrowsingLaptop[1].tcpApp[0] 	numSessions:last 	16
attr source  sum(connect+1)/2
attr title  "total number of sessions, last"
scalar ExamTaskNetwork.BrowsingLaptop[1].tcpApp[0] 	sentPk:count 	16
attr interpolationmode  none
attr source  sentPk
attr title  "packets sent, count"
scalar ExamTaskNetwork.BrowsingLaptop[1].tcpApp[0] 	sentPk:sum(packetBytes) 	131072
attr interpolationmode  none
attr source  sentPk
attr title  "packets sent, sum(packetBytes)"
scalar ExamTaskNetwork.BrowsingLaptop[1].tcpApp[0] 	rcvdPk:count 	15
attr interpolationmode  none
attr source  rcvdPk
attr title  "packets received, count"
scalar ExamTaskNetwork.BrowsingLaptop[1].tcpApp[0] 	rcvdPk:sum(packetBytes) 	11688125
attr interpolationmode  none
attr source  rcvdPk
attr title  "packets received, sum(packetBytes)"
statistic ExamTaskNetwork.BrowsingLaptop[1].tcpApp[0] 	endToEndDelay:histogram
field count 15
field mean 42.767549389571
field stddev 24.778186341444
field sum 641.51324084356
field sqrsum 36031.368469039
field min 3.966977946359
field max 79.609429601555
attr interpolationmode  none
attr source  messageAge(rcvdPk)
attr title  "end-to-end delay, histogram"
attr unit  s
bin	-INF	0
bin	-33.854247881239	0
bin	-28.811417770893	0
bin	-23.768587660546	0
bin	-18.7257575502	0
bin	-13.682927439853	0
bin	-8.640097329507	0
bin	-3.5972672191606	0
bin	1.4455628911858	2
bin	6.4883930015322	0
bin	11.531223111879	1
bin	16.574053222225	1
bin	21.616883332571	0
bin	26.659713442918	1
bin	31.702543553264	2
bin	36.745373663611	0
bin	41.788203773957	1
bin	46.831033884303	0
bin	51.87386399465	0
bin	56.916694104996	2
bin	61.959524215343	2
bin	67.002354325689	2
bin	72.045184436035	0
bin	77.088014546382	1
bin	82.130844656728	0
bin	87.173674767075	0
bin	92.216504877421	0
bin	97.259334987767	0
bin	102.30216509811	0
bin	107.34499520846	0
bin	112.38782531881	0
bin	117.43065542915	0
scalar ExamTaskNetwork.BrowsingLaptop[2].networkLayer.arp 	initiatedARPResolution:count 	8
attr title  "ARP initiated resolutions, count"
scalar ExamTaskNetwork.BrowsingLaptop[2].networkLayer.arp 	sentReply:count 	4
attr title  "ARP replies sent, count"
scalar ExamTaskNetwork.BrowsingLaptop[2].networkLayer.arp 	sentReq:count 	9
attr title  "ARP request sent, count"
scalar ExamTaskNetwork.BrowsingLaptop[2].networkLayer.arp 	failedARPResolution:count 	0
attr title  "ARP failed resolutions, count"
scalar ExamTaskNetwork.BrowsingLaptop[2].networkLayer.arp 	completedARPResolution:count 	206
attr title  "ARP completed resolutions, count"
scalar ExamTaskNetwork.BrowsingLaptop[2].lo0.lo 	rcvdPkFromHL:count 	0
attr interpolationmode  none
attr source  packetReceivedFromUpper
attr title  "packets received from higher layer, count"
scalar ExamTaskNetwork.BrowsingLaptop[2].lo0.lo 	rcvdPkFromHL:sum(packetBytes) 	0
attr interpolationmode  none
attr source  packetReceivedFromUpper
attr title  "packets received from higher layer, sum(packetBytes)"
scalar ExamTaskNetwork.BrowsingLaptop[2].lo0.lo 	passedUpPk:count 	0
attr interpolationmode  none
attr source  packetSentToUpper
attr title  "packets passed to higher layer, count"
scalar ExamTaskNetwork.BrowsingLaptop[2].lo0.lo 	passedUpPk:sum(packetBytes) 	0
attr interpolationmode  none
attr source  packetSentToUpper
attr title  "packets passed to higher layer, sum(packetBytes)"
scalar ExamTaskNetwork.BrowsingLaptop[2].lo0.lo 	droppedPkBitError:count 	0
attr interpolationmode  none
attr source  dropPkBitError
attr title  "packets dropped/bit error, count"
scalar ExamTaskNetwork.BrowsingLaptop[2].lo0.lo 	droppedPkBitError:sum(packetBytes) 	0
attr interpolationmode  none
attr source  dropPkBitError
attr title  "packets dropped/bit error, sum(packetBytes)"
scalar ExamTaskNetwork.BrowsingLaptop[2].wlan[0].agent 	dropConfirm:count 	0
attr title  "dropped confirms, count"
scalar ExamTaskNetwork.BrowsingLaptop[2].wlan[0].agent 	acceptConfirm:count 	21
attr title  "accepted confirms, count"
scalar ExamTaskNetwork.BrowsingLaptop[2].wlan[0].agent 	sentRequest:count 	22
attr title  "sent requests, count"
scalar ExamTaskNetwork.BrowsingLaptop[2].wlan[0].mgmt 	dropPkByQueue:count 	0
attr interpolationmode  none
attr source  dropPkByQueue
attr title  "packets dropped by queue, count"
scalar ExamTaskNetwork.BrowsingLaptop[2].wlan[0].mgmt 	dropPkByQueue:sum(packetBytes) 	0
attr interpolationmode  none
attr source  dropPkByQueue
attr title  "packets dropped by queue, sum(packetBytes)"
scalar ExamTaskNetwork.BrowsingLaptop[2].wlan[0].mgmt 	dataQueueLen:max 	0
attr interpolationmode  sample-hold
attr title  "data queue length, max"
scalar ExamTaskNetwork.BrowsingLaptop[2].wlan[0].mgmt 	dataQueueLen:timeavg 	0
attr interpolationmode  sample-hold
attr title  "data queue length, timeavg"
scalar ExamTaskNetwork.BrowsingLaptop[2].wlan[0].mac 	"number of received packets" 	15785
scalar ExamTaskNetwork.BrowsingLaptop[2].wlan[0].mac 	"number of collisions" 	46094
scalar ExamTaskNetwork.BrowsingLaptop[2].wlan[0].mac 	"number of internal collisions" 	0
scalar ExamTaskNetwork.BrowsingLaptop[2].wlan[0].mac 	"number of retry for AC 0" 	74
scalar ExamTaskNetwork.BrowsingLaptop[2].wlan[0].mac 	"sent and received bits" 	6047856
scalar ExamTaskNetwork.BrowsingLaptop[2].wlan[0].mac 	"sent packet within AC 0" 	7675
scalar ExamTaskNetwork.BrowsingLaptop[2].wlan[0].mac 	"sent in TXOP " 	0
scalar ExamTaskNetwork.BrowsingLaptop[2].wlan[0].mac 	"sentWithoutRetry AC 0" 	7630
scalar ExamTaskNetwork.BrowsingLaptop[2].wlan[0].mac 	"numGivenUp AC 0" 	0
scalar ExamTaskNetwork.BrowsingLaptop[2].wlan[0].mac 	"numDropped AC 0" 	0
scalar ExamTaskNetwork.BrowsingLaptop[2].wlan[0].mac 	rcvdPkFromHL:count 	7683
attr interpolationmode  none
attr source  packetReceivedFromUpper
attr title  "packets received from higher layer, count"
scalar ExamTaskNetwork.BrowsingLaptop[2].wlan[0].mac 	rcvdPkFromHL:sum(packetBytes) 	755982
attr interpolationmode  none
attr source  packetReceivedFromUpper
attr title  "packets received from higher layer, sum(packetBytes)"
scalar ExamTaskNetwork.BrowsingLaptop[2].wlan[0].mac 	passedUpPk:count 	25967
attr interpolationmode  none
attr source  packetSentToUpper
attr title  "packets passed to higher layer, count"
scalar ExamTaskNetwork.BrowsingLaptop[2].wlan[0].mac 	passedUpPk:sum(packetBytes) 	13972222
attr interpolationmode  none
attr source  packetSentToUpper
attr title  "packets passed to higher layer, sum(packetBytes)"
scalar ExamTaskNetwork.BrowsingLaptop[2].wlan[0].mac 	rcvdPkFromLL:count 	3727644
attr interpolationmode  none
attr source  packetReceivedFromLower
attr title  "packets received from lower layer, count"
scalar ExamTaskNetwork.BrowsingLaptop[2].wlan[0].mac 	rcvdPkFromLL:sum(packetBytes) 	1399615793
attr interpolationmode  none
attr source  packetReceivedFromLower
attr title  "packets received from lower layer, sum(packetBytes)"
scalar ExamTaskNetwork.BrowsingLaptop[2].wlan[0].mac 	sentDownPk:count 	23542
attr interpolationmode  none
attr source  packetSentToLower
attr title  "packets sent to lower layer, count"
scalar ExamTaskNetwork.BrowsingLaptop[2].wlan[0].mac 	sentDownPk:sum(packetBytes) 	1015612
attr interpolationmode  none
attr source  packetSentToLower
attr title  "packets sent to lower layer, sum(packetBytes)"
scalar ExamTaskNetwork.BrowsingLaptop[2].wlan[0].radio 	lossRate:min 	0
attr interpolationmode  backward-sample-hold
attr title  "packet loss rate, min"
scalar ExamTaskNetwork.BrowsingLaptop[2].wlan[0].radio 	lossRate:max 	0.28
attr interpolationmode  backward-sample-hold
attr title  "packet loss rate, max"
scalar ExamTaskNetwork.BrowsingLaptop[2].wlan[0].radio 	lossRate:timeavg 	0.012207853617768
attr interpolationmode  backward-sample-hold
attr title  "packet loss rate, timeavg"
statistic ExamTaskNetwork.BrowsingLaptop[2].wlan[0].radio 	channelNo:histogram
field count 1
field mean 0
field stddev -nan
field sum 0
field sqrsum 0
field min 0
field max 0
attr interpolationmode  sample-hold
attr title  "channel no, histogram"
bin	-INF	0
bin	-0.5	0
bin	-0.46666666666667	0
bin	-0.43333333333333	0
bin	-0.4	0
bin	-0.36666666666667	0
bin	-0.33333333333333	0
bin	-0.3	0
bin	-0.26666666666667	0
bin	-0.23333333333333	0
bin	-0.2	0
bin	-0.16666666666667	0
bin	-0.13333333333333	0
bin	-0.1	0
bin	-0.066666666666667	0
bin	-0.033333333333333	0
bin	0	1
bin	0.033333333333333	0
bin	0.066666666666667	0
bin	0.1	0
bin	0.13333333333333	0
bin	0.16666666666667	0
bin	0.2	0
bin	0.23333333333333	0
bin	0.26666666666667	0
bin	0.3	0
bin	0.33333333333333	0
bin	0.36666666666667	0
bin	0.4	0
bin	0.43333333333333	0
bin	0.46666666666667	0
bin	0.5	0
scalar ExamTaskNetwork.BrowsingLaptop[2].wlan[0].radio 	radioState:count 	7502449
attr interpolationmode  sample-hold
attr title  "radio state (enum), count"
scalar ExamTaskNetwork.BrowsingLaptop[2].wlan[0].radio 	bitrate:min 	54000000
attr interpolationmode  sample-hold
attr title  "tx bitrate, min"
attr unit  bps
scalar ExamTaskNetwork.BrowsingLaptop[2].wlan[0].radio 	bitrate:max 	54000000
attr interpolationmode  sample-hold
attr title  "tx bitrate, max"
attr unit  bps
scalar ExamTaskNetwork.BrowsingLaptop[2].wlan[0].radio 	bitrate:timeavg 	54000000
attr interpolationmode  sample-hold
attr title  "tx bitrate, timeavg"
attr unit  bps
scalar ExamTaskNetwork.BrowsingLaptop[2].tcpApp[0] 	numActiveSessions:max 	1
attr interpolationmode  sample-hold
attr source  sum(connect)
attr title  "number of active sessions, max"
scalar ExamTaskNetwork.BrowsingLaptop[2].tcpApp[0] 	numActiveSessions:timeavg 	0.65036775250502
attr interpolationmode  sample-hold
attr source  sum(connect)
attr title  "number of active sessions, timeavg"
scalar ExamTaskNetwork.BrowsingLaptop[2].tcpApp[0] 	numSessions:last 	15
attr source  sum(connect+1)/2
attr title  "total number of sessions, last"
scalar ExamTaskNetwork.BrowsingLaptop[2].tcpApp[0] 	sentPk:count 	15
attr interpolationmode  none
attr source  sentPk
attr title  "packets sent, count"
scalar ExamTaskNetwork.BrowsingLaptop[2].tcpApp[0] 	sentPk:sum(packetBytes) 	122880
attr interpolationmode  none
attr source  sentPk
attr title  "packets sent, sum(packetBytes)"
scalar ExamTaskNetwork.BrowsingLaptop[2].tcpApp[0] 	rcvdPk:count 	15
attr interpolationmode  none
attr source  rcvdPk
attr title  "packets received, count"
scalar ExamTaskNetwork.BrowsingLaptop[2].tcpApp[0] 	rcvdPk:sum(packetBytes) 	10674865
attr interpolationmode  none
attr source  rcvdPk
attr title  "packets received, sum(packetBytes)"
statistic ExamTaskNetwork.BrowsingLaptop[2].tcpApp[0] 	endToEndDelay:histogram
field count 15
field mean 42.915553562655
field stddev 35.788454522406
field sum 643.73330343982
field sqrsum 45557.559743269
field min 0.845080336994
field max 117.53642380318
attr interpolationmode  none
attr source  messageAge(rcvdPk)
attr title  "end-to-end delay, histogram"
attr unit  s
bin	-INF	0
bin	-57.500591396097	0
bin	-49.721168498352	0
bin	-41.941745600606	0
bin	-34.162322702861	0
bin	-26.382899805115	0
bin	-18.60347690737	0
bin	-10.824054009624	0
bin	-3.0446311118787	2
bin	4.7347917858667	1
bin	12.514214683612	1
bin	20.293637581358	2
bin	28.073060479103	0
bin	35.852483376849	2
bin	43.631906274594	4
bin	51.41132917234	0
bin	59.190752070085	0
bin	66.97017496783	1
bin	74.749597865576	0
bin	82.529020763321	0
bin	90.308443661067	0
bin	98.087866558812	0
bin	105.86728945656	0
bin	113.6467123543	2
bin	121.42613525205	0
bin	129.20555814979	0
bin	136.98498104754	0
bin	144.76440394529	0
bin	152.54382684303	0
bin	160.32324974078	0
bin	168.10267263852	0
bin	175.88209553627	0
scalar ExamTaskNetwork.BrowsingLaptop[3].networkLayer.arp 	initiatedARPResolution:count 	9
attr title  "ARP initiated resolutions, count"
scalar ExamTaskNetwork.BrowsingLaptop[3].networkLayer.arp 	sentReply:count 	7
attr title  "ARP replies sent, count"
scalar ExamTaskNetwork.BrowsingLaptop[3].networkLayer.arp 	sentReq:count 	10
attr title  "ARP request sent, count"
scalar ExamTaskNetwork.BrowsingLaptop[3].networkLayer.arp 	failedARPResolution:count 	0
attr title  "ARP failed resolutions, count"
scalar ExamTaskNetwork.BrowsingLaptop[3].networkLayer.arp 	completedARPResolution:count 	227
attr title  "ARP completed resolutions, count"
scalar ExamTaskNetwork.BrowsingLaptop[3].lo0.lo 	rcvdPkFromHL:count 	0
attr interpolationmode  none
attr source  packetReceivedFromUpper
attr title  "packets received from higher layer, count"
scalar ExamTaskNetwork.BrowsingLaptop[3].lo0.lo 	rcvdPkFromHL:sum(packetBytes) 	0
attr interpolationmode  none
attr source  packetReceivedFromUpper
attr title  "packets received from higher layer, sum(packetBytes)"
scalar ExamTaskNetwork.BrowsingLaptop[3].lo0.lo 	passedUpPk:count 	0
attr interpolationmode  none
attr source  packetSentToUpper
attr title  "packets passed to higher layer, count"
scalar ExamTaskNetwork.BrowsingLaptop[3].lo0.lo 	passedUpPk:sum(packetBytes) 	0
attr interpolationmode  none
attr source  packetSentToUpper
attr title  "packets passed to higher layer, sum(packetBytes)"
scalar ExamTaskNetwork.BrowsingLaptop[3].lo0.lo 	droppedPkBitError:count 	0
attr interpolationmode  none
attr source  dropPkBitError
attr title  "packets dropped/bit error, count"
scalar ExamTaskNetwork.BrowsingLaptop[3].lo0.lo 	droppedPkBitError:sum(packetBytes) 	0
attr interpolationmode  none
attr source  dropPkBitError
attr title  "packets dropped/bit error, sum(packetBytes)"
scalar ExamTaskNetwork.BrowsingLaptop[3].wlan[0].agent 	dropConfirm:count 	0
attr title  "dropped confirms, count"
scalar ExamTaskNetwork.BrowsingLaptop[3].wlan[0].agent 	acceptConfirm:count 	21
attr title  "accepted confirms, count"
scalar ExamTaskNetwork.BrowsingLaptop[3].wlan[0].agent 	sentRequest:count 	22
attr title  "sent requests, count"
scalar ExamTaskNetwork.BrowsingLaptop[3].wlan[0].mgmt 	dropPkByQueue:count 	16
attr interpolationmode  none
attr source  dropPkByQueue
attr title  "packets dropped by queue, count"
scalar ExamTaskNetwork.BrowsingLaptop[3].wlan[0].mgmt 	dropPkByQueue:sum(packetBytes) 	1568
attr interpolationmode  none
attr source  dropPkByQueue
attr title  "packets dropped by queue, sum(packetBytes)"
scalar ExamTaskNetwork.BrowsingLaptop[3].wlan[0].mgmt 	dataQueueLen:max 	50
attr interpolationmode  sample-hold
attr title  "data queue length, max"
scalar ExamTaskNetwork.BrowsingLaptop[3].wlan[0].mgmt 	dataQueueLen:timeavg 	0.0099579895200037
attr interpolationmode  sample-hold
attr title  "data queue length, timeavg"
scalar ExamTaskNetwork.BrowsingLaptop[3].wlan[0].mac 	"number of received packets" 	14712
scalar ExamTaskNetwork.BrowsingLaptop[3].wlan[0].mac 	"number of collisions" 	46702
scalar ExamTaskNetwork.BrowsingLaptop[3].wlan[0].mac 	"number of internal collisions" 	0
scalar ExamTaskNetwork.BrowsingLaptop[3].wlan[0].mac 	"number of retry for AC 0" 	227
scalar ExamTaskNetwork.BrowsingLaptop[3].wlan[0].mac 	"sent and received bits" 	6469312
scalar ExamTaskNetwork.BrowsingLaptop[3].wlan[0].mac 	"sent packet within AC 0" 	7850
scalar ExamTaskNetwork.BrowsingLaptop[3].wlan[0].mac 	"sent in TXOP " 	0
scalar ExamTaskNetwork.BrowsingLaptop[3].wlan[0].mac 	"sentWithoutRetry AC 0" 	7664
scalar ExamTaskNetwork.BrowsingLaptop[3].wlan[0].mac 	"numGivenUp AC 0" 	0
scalar ExamTaskNetwork.BrowsingLaptop[3].wlan[0].mac 	"numDropped AC 0" 	0
scalar ExamTaskNetwork.BrowsingLaptop[3].wlan[0].mac 	rcvdPkFromHL:count 	7858
attr interpolationmode  none
attr source  packetReceivedFromUpper
attr title  "packets received from higher layer, count"
scalar ExamTaskNetwork.BrowsingLaptop[3].wlan[0].mac 	rcvdPkFromHL:sum(packetBytes) 	808664
attr interpolationmode  none
attr source  packetReceivedFromUpper
attr title  "packets received from higher layer, sum(packetBytes)"
scalar ExamTaskNetwork.BrowsingLaptop[3].wlan[0].mac 	passedUpPk:count 	24892
attr interpolationmode  none
attr source  packetSentToUpper
attr title  "packets passed to higher layer, count"
scalar ExamTaskNetwork.BrowsingLaptop[3].wlan[0].mac 	passedUpPk:sum(packetBytes) 	13078488
attr interpolationmode  none
attr source  packetSentToUpper
attr title  "packets passed to higher layer, sum(packetBytes)"
scalar ExamTaskNetwork.BrowsingLaptop[3].wlan[0].mac 	rcvdPkFromLL:count 	3728389
attr interpolationmode  none
attr source  packetReceivedFromLower
attr title  "packets received from lower layer, count"
scalar ExamTaskNetwork.BrowsingLaptop[3].wlan[0].mac 	rcvdPkFromLL:sum(packetBytes) 	1399376779
attr interpolationmode  none
attr source  packetReceivedFromLower
attr title  "packets received from lower layer, sum(packetBytes)"
scalar ExamTaskNetwork.BrowsingLaptop[3].wlan[0].mac 	sentDownPk:count 	22797
attr interpolationmode  none
attr source  packetSentToLower
attr title  "packets sent to lower layer, count"
scalar ExamTaskNetwork.BrowsingLaptop[3].wlan[0].mac 	sentDownPk:sum(packetBytes) 	1069520
attr interpolationmode  none
attr source  packetSentToLower
attr title  "packets sent to lower layer, sum(packetBytes)"
scalar ExamTaskNetwork.BrowsingLaptop[3].wlan[0].radio 	lossRate:min 	0
attr interpolationmode  backward-sample-hold
attr title  "packet loss rate, min"
scalar ExamTaskNetwork.BrowsingLaptop[3].wlan[0].radio 	lossRate:max 	0.24
attr interpolationmode  backward-sample-hold
attr title  "packet loss rate, max"
scalar ExamTaskNetwork.BrowsingLaptop[3].wlan[0].radio 	lossRate:timeavg 	0.012372981829034
attr interpolationmode  backward-sample-hold
attr title  "packet loss rate, timeavg"
statistic ExamTaskNetwork.BrowsingLaptop[3].wlan[0].radio 	channelNo:histogram
field count 1
field mean 0
field stddev -nan
field sum 0
field sqrsum 0
field min 0
field max 0
attr interpolationmode  sample-hold
attr title  "channel no, histogram"
bin	-INF	0
bin	-0.5	0
bin	-0.46666666666667	0
bin	-0.43333333333333	0
bin	-0.4	0
bin	-0.36666666666667	0
bin	-0.33333333333333	0
bin	-0.3	0
bin	-0.26666666666667	0
bin	-0.23333333333333	0
bin	-0.2	0
bin	-0.16666666666667	0
bin	-0.13333333333333	0
bin	-0.1	0
bin	-0.066666666666667	0
bin	-0.033333333333333	0
bin	0	1
bin	0.033333333333333	0
bin	0.066666666666667	0
bin	0.1	0
bin	0.13333333333333	0
bin	0.16666666666667	0
bin	0.2	0
bin	0.23333333333333	0
bin	0.26666666666667	0
bin	0.3	0
bin	0.33333333333333	0
bin	0.36666666666667	0
bin	0.4	0
bin	0.43333333333333	0
bin	0.46666666666667	0
bin	0.5	0
scalar ExamTaskNetwork.BrowsingLaptop[3].wlan[0].radio 	radioState:count 	7502645
attr interpolationmode  sample-hold
attr title  "radio state (enum), count"
scalar ExamTaskNetwork.BrowsingLaptop[3].wlan[0].radio 	bitrate:min 	54000000
attr interpolationmode  sample-hold
attr title  "tx bitrate, min"
attr unit  bps
scalar ExamTaskNetwork.BrowsingLaptop[3].wlan[0].radio 	bitrate:max 	54000000
attr interpolationmode  sample-hold
attr title  "tx bitrate, max"
attr unit  bps
scalar ExamTaskNetwork.BrowsingLaptop[3].wlan[0].radio 	bitrate:timeavg 	54000000
attr interpolationmode  sample-hold
attr title  "tx bitrate, timeavg"
attr unit  bps
scalar ExamTaskNetwork.BrowsingLaptop[3].tcpApp[0] 	numActiveSessions:max 	1
attr interpolationmode  sample-hold
attr source  sum(connect)
attr title  "number of active sessions, max"
scalar ExamTaskNetwork.BrowsingLaptop[3].tcpApp[0] 	numActiveSessions:timeavg 	0.6453297258365
attr interpolationmode  sample-hold
attr source  sum(connect)
attr title  "number of active sessions, timeavg"
scalar ExamTaskNetwork.BrowsingLaptop[3].tcpApp[0] 	numSessions:last 	18
attr source  sum(connect+1)/2
attr title  "total number of sessions, last"
scalar ExamTaskNetwork.BrowsingLaptop[3].tcpApp[0] 	sentPk:count 	18
attr interpolationmode  none
attr source  sentPk
attr title  "packets sent, count"
scalar ExamTaskNetwork.BrowsingLaptop[3].tcpApp[0] 	sentPk:sum(packetBytes) 	147456
attr interpolationmode  none
attr source  sentPk
attr title  "packets sent, sum(packetBytes)"
scalar ExamTaskNetwork.BrowsingLaptop[3].tcpApp[0] 	rcvdPk:count 	17
attr interpolationmode  none
attr source  rcvdPk
attr title  "packets received, count"
scalar ExamTaskNetwork.BrowsingLaptop[3].tcpApp[0] 	rcvdPk:sum(packetBytes) 	8974729
attr interpolationmode  none
attr source  rcvdPk
attr title  "packets received, sum(packetBytes)"
statistic ExamTaskNetwork.BrowsingLaptop[3].tcpApp[0] 	endToEndDelay:histogram
field count 17
field mean 34.099300801443
field stddev 39.776949079848
field sum 579.68811362454
field sqrsum 45082.250207118
field min 0.612043213579
field max 153.18316675891
attr interpolationmode  none
attr source  messageAge(rcvdPk)
attr title  "end-to-end delay, histogram"
attr unit  s
bin	-INF	0
bin	-75.673518559088	0
bin	-65.502110322732	0
bin	-55.330702086377	0
bin	-45.159293850021	0
bin	-34.987885613666	0
bin	-24.81647737731	0
bin	-14.645069140954	0
bin	-4.4736609045988	4
bin	5.6977473317568	4
bin	15.869155568112	2
bin	26.040563804468	1
bin	36.211972040824	2
bin	46.383380277179	0
bin	56.554788513535	1
bin	66.72619674989	1
bin	76.897604986246	0
bin	87.069013222602	1
bin	97.240421458957	0
bin	107.41182969531	0
bin	117.58323793167	0
bin	127.75464616802	0
bin	137.92605440438	0
bin	148.09746264074	1
bin	158.26887087709	0
bin	168.44027911345	0
bin	178.6116873498	0
bin	188.78309558616	0
bin	198.95450382251	0
bin	209.12591205887	0
bin	219.29732029522	0
bin	229.46872853158	0
scalar ExamTaskNetwork.BrowsingLaptop[4].networkLayer.arp 	initiatedARPResolution:count 	8
attr title  "ARP initiated resolutions, count"
scalar ExamTaskNetwork.BrowsingLaptop[4].networkLayer.arp 	sentReply:count 	3
attr title  "ARP replies sent, count"
scalar ExamTaskNetwork.BrowsingLaptop[4].networkLayer.arp 	sentReq:count 	9
attr title  "ARP request sent, count"
scalar ExamTaskNetwork.BrowsingLaptop[4].networkLayer.arp 	failedARPResolution:count 	0
attr title  "ARP failed resolutions, count"
scalar ExamTaskNetwork.BrowsingLaptop[4].networkLayer.arp 	completedARPResolution:count 	231
attr title  "ARP completed resolutions, count"
scalar ExamTaskNetwork.BrowsingLaptop[4].lo0.lo 	rcvdPkFromHL:count 	0
attr interpolationmode  none
attr source  packetReceivedFromUpper
attr title  "packets received from higher layer, count"
scalar ExamTaskNetwork.BrowsingLaptop[4].lo0.lo 	rcvdPkFromHL:sum(packetBytes) 	0
attr interpolationmode  none
attr source  packetReceivedFromUpper
attr title  "packets received from higher layer, sum(packetBytes)"
scalar ExamTaskNetwork.BrowsingLaptop[4].lo0.lo 	passedUpPk:count 	0
attr interpolationmode  none
attr source  packetSentToUpper
attr title  "packets passed to higher layer, count"
scalar ExamTaskNetwork.BrowsingLaptop[4].lo0.lo 	passedUpPk:sum(packetBytes) 	0
attr interpolationmode  none
attr source  packetSentToUpper
attr title  "packets passed to higher layer, sum(packetBytes)"
scalar ExamTaskNetwork.BrowsingLaptop[4].lo0.lo 	droppedPkBitError:count 	0
attr interpolationmode  none
attr source  dropPkBitError
attr title  "packets dropped/bit error, count"
scalar ExamTaskNetwork.BrowsingLaptop[4].lo0.lo 	droppedPkBitError:sum(packetBytes) 	0
attr interpolationmode  none
attr source  dropPkBitError
attr title  "packets dropped/bit error, sum(packetBytes)"
scalar ExamTaskNetwork.BrowsingLaptop[4].wlan[0].agent 	dropConfirm:count 	0
attr title  "dropped confirms, count"
scalar ExamTaskNetwork.BrowsingLaptop[4].wlan[0].agent 	acceptConfirm:count 	21
attr title  "accepted confirms, count"
scalar ExamTaskNetwork.BrowsingLaptop[4].wlan[0].agent 	sentRequest:count 	22
attr title  "sent requests, count"
scalar ExamTaskNetwork.BrowsingLaptop[4].wlan[0].mgmt 	dropPkByQueue:count 	0
attr interpolationmode  none
attr source  dropPkByQueue
attr title  "packets dropped by queue, count"
scalar ExamTaskNetwork.BrowsingLaptop[4].wlan[0].mgmt 	dropPkByQueue:sum(packetBytes) 	0
attr interpolationmode  none
attr source  dropPkByQueue
attr title  "packets dropped by queue, sum(packetBytes)"
scalar ExamTaskNetwork.BrowsingLaptop[4].wlan[0].mgmt 	dataQueueLen:max 	0
attr interpolationmode  sample-hold
attr title  "data queue length, max"
scalar ExamTaskNetwork.BrowsingLaptop[4].wlan[0].mgmt 	dataQueueLen:timeavg 	0
attr interpolationmode  sample-hold
attr title  "data queue length, timeavg"
scalar ExamTaskNetwork.BrowsingLaptop[4].wlan[0].mac 	"number of received packets" 	12343
scalar ExamTaskNetwork.BrowsingLaptop[4].wlan[0].mac 	"number of collisions" 	46441
scalar ExamTaskNetwork.BrowsingLaptop[4].wlan[0].mac 	"number of internal collisions" 	0
scalar ExamTaskNetwork.BrowsingLaptop[4].wlan[0].mac 	"number of retry for AC 0" 	59
scalar ExamTaskNetwork.BrowsingLaptop[4].wlan[0].mac 	"sent and received bits" 	4725600
scalar ExamTaskNetwork.BrowsingLaptop[4].wlan[0].mac 	"sent packet within AC 0" 	5977
scalar ExamTaskNetwork.BrowsingLaptop[4].wlan[0].mac 	"sent in TXOP " 	0
scalar ExamTaskNetwork.BrowsingLaptop[4].wlan[0].mac 	"sentWithoutRetry AC 0" 	5943
scalar ExamTaskNetwork.BrowsingLaptop[4].wlan[0].mac 	"numGivenUp AC 0" 	0
scalar ExamTaskNetwork.BrowsingLaptop[4].wlan[0].mac 	"numDropped AC 0" 	0
scalar ExamTaskNetwork.BrowsingLaptop[4].wlan[0].mac 	rcvdPkFromHL:count 	5985
attr interpolationmode  none
attr source  packetReceivedFromUpper
attr title  "packets received from higher layer, count"
scalar ExamTaskNetwork.BrowsingLaptop[4].wlan[0].mac 	rcvdPkFromHL:sum(packetBytes) 	590700
attr interpolationmode  none
attr source  packetReceivedFromUpper
attr title  "packets received from higher layer, sum(packetBytes)"
scalar ExamTaskNetwork.BrowsingLaptop[4].wlan[0].mac 	passedUpPk:count 	22523
attr interpolationmode  none
attr source  packetSentToUpper
attr title  "packets passed to higher layer, count"
scalar ExamTaskNetwork.BrowsingLaptop[4].wlan[0].mac 	passedUpPk:sum(packetBytes) 	11123904
attr interpolationmode  none
attr source  packetSentToUpper
attr title  "packets passed to higher layer, sum(packetBytes)"
scalar ExamTaskNetwork.BrowsingLaptop[4].wlan[0].mac 	rcvdPkFromLL:count 	3732799
attr interpolationmode  none
attr source  packetReceivedFromLower
attr title  "packets received from lower layer, count"
scalar ExamTaskNetwork.BrowsingLaptop[4].wlan[0].mac 	rcvdPkFromLL:sum(packetBytes) 	1399926405
attr interpolationmode  none
attr source  packetReceivedFromLower
attr title  "packets received from lower layer, sum(packetBytes)"
scalar ExamTaskNetwork.BrowsingLaptop[4].wlan[0].mac 	sentDownPk:count 	18387
attr interpolationmode  none
attr source  packetSentToLower
attr title  "packets sent to lower layer, count"
scalar ExamTaskNetwork.BrowsingLaptop[4].wlan[0].mac 	sentDownPk:sum(packetBytes) 	790552
attr interpolationmode  none
attr source  packetSentToLower
attr title  "packets sent to lower layer, sum(packetBytes)"
scalar ExamTaskNetwork.BrowsingLaptop[4].wlan[0].radio 	lossRate:min 	0
attr interpolationmode  backward-sample-hold
attr title  "packet loss rate, min"
scalar ExamTaskNetwork.BrowsingLaptop[4].wlan[0].radio 	lossRate:max 	0.28
attr interpolationmode  backward-sample-hold
attr title  "packet loss rate, max"
scalar ExamTaskNetwork.BrowsingLaptop[4].wlan[0].radio 	lossRate:timeavg 	0.012279497583428
attr interpolationmode  backward-sample-hold
attr title  "packet loss rate, timeavg"
statistic ExamTaskNetwork.BrowsingLaptop[4].wlan[0].radio 	channelNo:histogram
field count 1
field mean 0
field stddev -nan
field sum 0
field sqrsum 0
field min 0
field max 0
attr interpolationmode  sample-hold
attr title  "channel no, histogram"
bin	-INF	0
bin	-0.5	0
bin	-0.46666666666667	0
bin	-0.43333333333333	0
bin	-0.4	0
bin	-0.36666666666667	0
bin	-0.33333333333333	0
bin	-0.3	0
bin	-0.26666666666667	0
bin	-0.23333333333333	0
bin	-0.2	0
bin	-0.16666666666667	0
bin	-0.13333333333333	0
bin	-0.1	0
bin	-0.066666666666667	0
bin	-0.033333333333333	0
bin	0	1
bin	0.033333333333333	0
bin	0.066666666666667	0
bin	0.1	0
bin	0.13333333333333	0
bin	0.16666666666667	0
bin	0.2	0
bin	0.23333333333333	0
bin	0.26666666666667	0
bin	0.3	0
bin	0.33333333333333	0
bin	0.36666666666667	0
bin	0.4	0
bin	0.43333333333333	0
bin	0.46666666666667	0
bin	0.5	0
scalar ExamTaskNetwork.BrowsingLaptop[4].wlan[0].radio 	radioState:count 	7502442
attr interpolationmode  sample-hold
attr title  "radio state (enum), count"
scalar ExamTaskNetwork.BrowsingLaptop[4].wlan[0].radio 	bitrate:min 	54000000
attr interpolationmode  sample-hold
attr title  "tx bitrate, min"
attr unit  bps
scalar ExamTaskNetwork.BrowsingLaptop[4].wlan[0].radio 	bitrate:max 	54000000
attr interpolationmode  sample-hold
attr title  "tx bitrate, max"
attr unit  bps
scalar ExamTaskNetwork.BrowsingLaptop[4].wlan[0].radio 	bitrate:timeavg 	54000000
attr interpolationmode  sample-hold
attr title  "tx bitrate, timeavg"
attr unit  bps
scalar ExamTaskNetwork.BrowsingLaptop[4].tcpApp[0] 	numActiveSessions:max 	1
attr interpolationmode  sample-hold
attr source  sum(connect)
attr title  "number of active sessions, max"
scalar ExamTaskNetwork.BrowsingLaptop[4].tcpApp[0] 	numActiveSessions:timeavg 	0.64273215928336
attr interpolationmode  sample-hold
attr source  sum(connect)
attr title  "number of active sessions, timeavg"
scalar ExamTaskNetwork.BrowsingLaptop[4].tcpApp[0] 	numSessions:last 	12
attr source  sum(connect+1)/2
attr title  "total number of sessions, last"
scalar ExamTaskNetwork.BrowsingLaptop[4].tcpApp[0] 	sentPk:count 	12
attr interpolationmode  none
attr source  sentPk
attr title  "packets sent, count"
scalar ExamTaskNetwork.BrowsingLaptop[4].tcpApp[0] 	sentPk:sum(packetBytes) 	98304
attr interpolationmode  none
attr source  sentPk
attr title  "packets sent, sum(packetBytes)"
scalar ExamTaskNetwork.BrowsingLaptop[4].tcpApp[0] 	rcvdPk:count 	12
attr interpolationmode  none
attr source  rcvdPk
attr title  "packets received, count"
scalar ExamTaskNetwork.BrowsingLaptop[4].tcpApp[0] 	rcvdPk:sum(packetBytes) 	8336153
attr interpolationmode  none
attr source  rcvdPk
attr title  "packets received, sum(packetBytes)"
statistic ExamTaskNetwork.BrowsingLaptop[4].tcpApp[0] 	endToEndDelay:histogram
field count 12
field mean 52.765263730404
field stddev 50.860854248685
field sum 633.18316476485
field sqrsum 61865.168122434
field min 0.501262742338
field max 148.9639363154
attr interpolationmode  none
attr source  messageAge(rcvdPk)
attr title  "end-to-end delay, histogram"
attr unit  s
bin	-INF	0
bin	-73.730074044191	0
bin	-63.832562472654	0
bin	-53.935050901117	0
bin	-44.03753932958	0
bin	-34.140027758042	0
bin	-24.242516186505	0
bin	-14.345004614968	0
bin	-4.4474930434306	2
bin	5.4500185281067	3
bin	15.347530099644	0
bin	25.245041671181	1
bin	35.142553242718	0
bin	45.040064814256	0
bin	54.937576385793	1
bin	64.83508795733	0
bin	74.732599528868	2
bin	84.630111100405	1
bin	94.527622671942	0
bin	104.42513424348	0
bin	114.32264581502	1
bin	124.22015738655	0
bin	134.11766895809	0
bin	144.01518052963	1
bin	153.91269210117	0
bin	163.8102036727	0
bin	173.70771524424	0
bin	183.60522681578	0
bin	193.50273838731	0
bin	203.40024995885	0
bin	213.29776153039	0
bin	223.19527310193	0
scalar ExamTaskNetwork.BrowsingLaptop[5].networkLayer.arp 	initiatedARPResolution:count 	8
attr title  "ARP initiated resolutions, count"
scalar ExamTaskNetwork.BrowsingLaptop[5].networkLayer.arp 	sentReply:count 	5
attr title  "ARP replies sent, count"
scalar ExamTaskNetwork.BrowsingLaptop[5].networkLayer.arp 	sentReq:count 	8
attr title  "ARP request sent, count"
scalar ExamTaskNetwork.BrowsingLaptop[5].networkLayer.arp 	failedARPResolution:count 	0
attr title  "ARP failed resolutions, count"
scalar ExamTaskNetwork.BrowsingLaptop[5].networkLayer.arp 	completedARPResolution:count 	232
attr title  "ARP completed resolutions, count"
scalar ExamTaskNetwork.BrowsingLaptop[5].lo0.lo 	rcvdPkFromHL:count 	0
attr interpolationmode  none
attr source  packetReceivedFromUpper
attr title  "packets received from higher layer, count"
scalar ExamTaskNetwork.BrowsingLaptop[5].lo0.lo 	rcvdPkFromHL:sum(packetBytes) 	0
attr interpolationmode  none
attr source  packetReceivedFromUpper
attr title  "packets received from higher layer, sum(packetBytes)"
scalar ExamTaskNetwork.BrowsingLaptop[5].lo0.lo 	passedUpPk:count 	0
attr interpolationmode  none
attr source  packetSentToUpper
attr title  "packets passed to higher layer, count"
scalar ExamTaskNetwork.BrowsingLaptop[5].lo0.lo 	passedUpPk:sum(packetBytes) 	0
attr interpolationmode  none
attr source  packetSentToUpper
attr title  "packets passed to higher layer, sum(packetBytes)"
scalar ExamTaskNetwork.BrowsingLaptop[5].lo0.lo 	droppedPkBitError:count 	0
attr interpolationmode  none
attr source  dropPkBitError
attr title  "packets dropped/bit error, count"
scalar ExamTaskNetwork.BrowsingLaptop[5].lo0.lo 	droppedPkBitError:sum(packetBytes) 	0
attr interpolationmode  none
attr source  dropPkBitError
attr title  "packets dropped/bit error, sum(packetBytes)"
scalar ExamTaskNetwork.BrowsingLaptop[5].wlan[0].agent 	dropConfirm:count 	0
attr title  "dropped confirms, count"
scalar ExamTaskNetwork.BrowsingLaptop[5].wlan[0].agent 	acceptConfirm:count 	21
attr title  "accepted confirms, count"
scalar ExamTaskNetwork.BrowsingLaptop[5].wlan[0].agent 	sentRequest:count 	22
attr title  "sent requests, count"
scalar ExamTaskNetwork.BrowsingLaptop[5].wlan[0].mgmt 	dropPkByQueue:count 	0
attr interpolationmode  none
attr source  dropPkByQueue
attr title  "packets dropped by queue, count"
scalar ExamTaskNetwork.BrowsingLaptop[5].wlan[0].mgmt 	dropPkByQueue:sum(packetBytes) 	0
attr interpolationmode  none
attr source  dropPkByQueue
attr title  "packets dropped by queue, sum(packetBytes)"
scalar ExamTaskNetwork.BrowsingLaptop[5].wlan[0].mgmt 	dataQueueLen:max 	42
attr interpolationmode  sample-hold
attr title  "data queue length, max"
scalar ExamTaskNetwork.BrowsingLaptop[5].wlan[0].mgmt 	dataQueueLen:timeavg 	0.006942805193622
attr interpolationmode  sample-hold
attr title  "data queue length, timeavg"
scalar ExamTaskNetwork.BrowsingLaptop[5].wlan[0].mac 	"number of received packets" 	13881
scalar ExamTaskNetwork.BrowsingLaptop[5].wlan[0].mac 	"number of collisions" 	45669
scalar ExamTaskNetwork.BrowsingLaptop[5].wlan[0].mac 	"number of internal collisions" 	0
scalar ExamTaskNetwork.BrowsingLaptop[5].wlan[0].mac 	"number of retry for AC 0" 	209
scalar ExamTaskNetwork.BrowsingLaptop[5].wlan[0].mac 	"sent and received bits" 	6185328
scalar ExamTaskNetwork.BrowsingLaptop[5].wlan[0].mac 	"sent packet within AC 0" 	7427
scalar ExamTaskNetwork.BrowsingLaptop[5].wlan[0].mac 	"sent in TXOP " 	0
scalar ExamTaskNetwork.BrowsingLaptop[5].wlan[0].mac 	"sentWithoutRetry AC 0" 	7250
scalar ExamTaskNetwork.BrowsingLaptop[5].wlan[0].mac 	"numGivenUp AC 0" 	0
scalar ExamTaskNetwork.BrowsingLaptop[5].wlan[0].mac 	"numDropped AC 0" 	0
scalar ExamTaskNetwork.BrowsingLaptop[5].wlan[0].mac 	rcvdPkFromHL:count 	7435
attr interpolationmode  none
attr source  packetReceivedFromUpper
attr title  "packets received from higher layer, count"
scalar ExamTaskNetwork.BrowsingLaptop[5].wlan[0].mac 	rcvdPkFromHL:sum(packetBytes) 	773166
attr interpolationmode  none
attr source  packetReceivedFromUpper
attr title  "packets received from higher layer, sum(packetBytes)"
scalar ExamTaskNetwork.BrowsingLaptop[5].wlan[0].mac 	passedUpPk:count 	24060
attr interpolationmode  none
attr source  packetSentToUpper
attr title  "packets passed to higher layer, count"
scalar ExamTaskNetwork.BrowsingLaptop[5].wlan[0].mac 	passedUpPk:sum(packetBytes) 	12393185
attr interpolationmode  none
attr source  packetSentToUpper
attr title  "packets passed to higher layer, sum(packetBytes)"
scalar ExamTaskNetwork.BrowsingLaptop[5].wlan[0].mac 	rcvdPkFromLL:count 	3729661
attr interpolationmode  none
attr source  packetReceivedFromLower
attr title  "packets received from lower layer, count"
scalar ExamTaskNetwork.BrowsingLaptop[5].wlan[0].mac 	rcvdPkFromLL:sum(packetBytes) 	1399698559
attr interpolationmode  none
attr source  packetReceivedFromLower
attr title  "packets received from lower layer, sum(packetBytes)"
scalar ExamTaskNetwork.BrowsingLaptop[5].wlan[0].mac 	sentDownPk:count 	21525
attr interpolationmode  none
attr source  packetSentToLower
attr title  "packets sent to lower layer, count"
scalar ExamTaskNetwork.BrowsingLaptop[5].wlan[0].mac 	sentDownPk:sum(packetBytes) 	1010714
attr interpolationmode  none
attr source  packetSentToLower
attr title  "packets sent to lower layer, sum(packetBytes)"
scalar ExamTaskNetwork.BrowsingLaptop[5].wlan[0].radio 	lossRate:min 	0
attr interpolationmode  backward-sample-hold
attr title  "packet loss rate, min"
scalar ExamTaskNetwork.BrowsingLaptop[5].wlan[0].radio 	lossRate:max 	0.28
attr interpolationmode  backward-sample-hold
attr title  "packet loss rate, max"
scalar ExamTaskNetwork.BrowsingLaptop[5].wlan[0].radio 	lossRate:timeavg 	0.012094452947455
attr interpolationmode  backward-sample-hold
attr title  "packet loss rate, timeavg"
statistic ExamTaskNetwork.BrowsingLaptop[5].wlan[0].radio 	channelNo:histogram
field count 1
field mean 0
field stddev -nan
field sum 0
field sqrsum 0
field min 0
field max 0
attr interpolationmode  sample-hold
attr title  "channel no, histogram"
bin	-INF	0
bin	-0.5	0
bin	-0.46666666666667	0
bin	-0.43333333333333	0
bin	-0.4	0
bin	-0.36666666666667	0
bin	-0.33333333333333	0
bin	-0.3	0
bin	-0.26666666666667	0
bin	-0.23333333333333	0
bin	-0.2	0
bin	-0.16666666666667	0
bin	-0.13333333333333	0
bin	-0.1	0
bin	-0.066666666666667	0
bin	-0.033333333333333	0
bin	0	1
bin	0.033333333333333	0
bin	0.066666666666667	0
bin	0.1	0
bin	0.13333333333333	0
bin	0.16666666666667	0
bin	0.2	0
bin	0.23333333333333	0
bin	0.26666666666667	0
bin	0.3	0
bin	0.33333333333333	0
bin	0.36666666666667	0
bin	0.4	0
bin	0.43333333333333	0
bin	0.46666666666667	0
bin	0.5	0
scalar ExamTaskNetwork.BrowsingLaptop[5].wlan[0].radio 	radioState:count 	7502630
attr interpolationmode  sample-hold
attr title  "radio state (enum), count"
scalar ExamTaskNetwork.BrowsingLaptop[5].wlan[0].radio 	bitrate:min 	54000000
attr interpolationmode  sample-hold
attr title  "tx bitrate, min"
attr unit  bps
scalar ExamTaskNetwork.BrowsingLaptop[5].wlan[0].radio 	bitrate:max 	54000000
attr interpolationmode  sample-hold
attr title  "tx bitrate, max"
attr unit  bps
scalar ExamTaskNetwork.BrowsingLaptop[5].wlan[0].radio 	bitrate:timeavg 	54000000
attr interpolationmode  sample-hold
attr title  "tx bitrate, timeavg"
attr unit  bps
scalar ExamTaskNetwork.BrowsingLaptop[5].tcpApp[0] 	numActiveSessions:max 	1
attr interpolationmode  sample-hold
attr source  sum(connect)
attr title  "number of active sessions, max"
scalar ExamTaskNetwork.BrowsingLaptop[5].tcpApp[0] 	numActiveSessions:timeavg 	0.69407383738902
attr interpolationmode  sample-hold
attr source  sum(connect)
attr title  "number of active sessions, timeavg"
scalar ExamTaskNetwork.BrowsingLaptop[5].tcpApp[0] 	numSessions:last 	18
attr source  sum(connect+1)/2
attr title  "total number of sessions, last"
scalar ExamTaskNetwork.BrowsingLaptop[5].tcpApp[0] 	sentPk:count 	18
attr interpolationmode  none
attr source  sentPk
attr title  "packets sent, count"
scalar ExamTaskNetwork.BrowsingLaptop[5].tcpApp[0] 	sentPk:sum(packetBytes) 	147456
attr interpolationmode  none
attr source  sentPk
attr title  "packets sent, sum(packetBytes)"
scalar ExamTaskNetwork.BrowsingLaptop[5].tcpApp[0] 	rcvdPk:count 	18
attr interpolationmode  none
attr source  rcvdPk
attr title  "packets received, count"
scalar ExamTaskNetwork.BrowsingLaptop[5].tcpApp[0] 	rcvdPk:sum(packetBytes) 	9348870
attr interpolationmode  none
attr source  rcvdPk
attr title  "packets received, sum(packetBytes)"
statistic ExamTaskNetwork.BrowsingLaptop[5].tcpApp[0] 	endToEndDelay:histogram
field count 18
field mean 38.05527474286
field stddev 66.234010770785
field sum 684.99494537148
field sqrsum 100645.72195092
field min 1.213665395858
field max 292.99985924764
attr interpolationmode  none
attr source  messageAge(rcvdPk)
attr title  "end-to-end delay, histogram"
attr unit  s
bin	-INF	0
bin	-144.67943153003	0
bin	-125.22701860658	0
bin	-105.77460568313	0
bin	-86.322192759676	0
bin	-66.869779836224	0
bin	-47.417366912772	0
bin	-27.96495398932	0
bin	-8.512541065868	3
bin	10.939871857584	10
bin	30.392284781036	3
bin	49.844697704488	0
bin	69.29711062794	1
bin	88.749523551392	0
bin	108.20193647484	0
bin	127.6543493983	0
bin	147.10676232175	0
bin	166.5591752452	0
bin	186.01158816865	0
bin	205.4640010921	0
bin	224.91641401556	0
bin	244.36882693901	0
bin	263.82123986246	0
bin	283.27365278591	1
bin	302.72606570936	0
bin	322.17847863282	0
bin	341.63089155627	0
bin	361.08330447972	0
bin	380.53571740317	0
bin	399.98813032662	0
bin	419.44054325008	0
bin	438.89295617353	0
scalar ExamTaskNetwork.BrowsingLaptop[6].networkLayer.arp 	initiatedARPResolution:count 	9
attr title  "ARP initiated resolutions, count"
scalar ExamTaskNetwork.BrowsingLaptop[6].networkLayer.arp 	sentReply:count 	7
attr title  "ARP replies sent, count"
scalar ExamTaskNetwork.BrowsingLaptop[6].networkLayer.arp 	sentReq:count 	10
attr title  "ARP request sent, count"
scalar ExamTaskNetwork.BrowsingLaptop[6].networkLayer.arp 	failedARPResolution:count 	0
attr title  "ARP failed resolutions, count"
scalar ExamTaskNetwork.BrowsingLaptop[6].networkLayer.arp 	completedARPResolution:count 	226
attr title  "ARP completed resolutions, count"
scalar ExamTaskNetwork.BrowsingLaptop[6].lo0.lo 	rcvdPkFromHL:count 	0
attr interpolationmode  none
attr source  packetReceivedFromUpper
attr title  "packets received from higher layer, count"
scalar ExamTaskNetwork.BrowsingLaptop[6].lo0.lo 	rcvdPkFromHL:sum(packetBytes) 	0
attr interpolationmode  none
attr source  packetReceivedFromUpper
attr title  "packets received from higher layer, sum(packetBytes)"
scalar ExamTaskNetwork.BrowsingLaptop[6].lo0.lo 	passedUpPk:count 	0
attr interpolationmode  none
attr source  packetSentToUpper
attr title  "packets passed to higher layer, count"
scalar ExamTaskNetwork.BrowsingLaptop[6].lo0.lo 	passedUpPk:sum(packetBytes) 	0
attr interpolationmode  none
attr source  packetSentToUpper
attr title  "packets passed to higher layer, sum(packetBytes)"
scalar ExamTaskNetwork.BrowsingLaptop[6].lo0.lo 	droppedPkBitError:count 	0
attr interpolationmode  none
attr source  dropPkBitError
attr title  "packets dropped/bit error, count"
scalar ExamTaskNetwork.BrowsingLaptop[6].lo0.lo 	droppedPkBitError:sum(packetBytes) 	0
attr interpolationmode  none
attr source  dropPkBitError
attr title  "packets dropped/bit error, sum(packetBytes)"
scalar ExamTaskNetwork.BrowsingLaptop[6].wlan[0].agent 	dropConfirm:count 	0
attr title  "dropped confirms, count"
scalar ExamTaskNetwork.BrowsingLaptop[6].wlan[0].agent 	acceptConfirm:count 	21
attr title  "accepted confirms, count"
scalar ExamTaskNetwork.BrowsingLaptop[6].wlan[0].agent 	sentRequest:count 	22
attr title  "sent requests, count"
scalar ExamTaskNetwork.BrowsingLaptop[6].wlan[0].mgmt 	dropPkByQueue:count 	0
attr interpolationmode  none
attr source  dropPkByQueue
attr title  "packets dropped by queue, count"
scalar ExamTaskNetwork.BrowsingLaptop[6].wlan[0].mgmt 	dropPkByQueue:sum(packetBytes) 	0
attr interpolationmode  none
attr source  dropPkByQueue
attr title  "packets dropped by queue, sum(packetBytes)"
scalar ExamTaskNetwork.BrowsingLaptop[6].wlan[0].mgmt 	dataQueueLen:max 	4
attr interpolationmode  sample-hold
attr title  "data queue length, max"
scalar ExamTaskNetwork.BrowsingLaptop[6].wlan[0].mgmt 	dataQueueLen:timeavg 	1.1462130872088e-05
attr interpolationmode  sample-hold
attr title  "data queue length, timeavg"
scalar ExamTaskNetwork.BrowsingLaptop[6].wlan[0].mac 	"number of received packets" 	19554
scalar ExamTaskNetwork.BrowsingLaptop[6].wlan[0].mac 	"number of collisions" 	46014
scalar ExamTaskNetwork.BrowsingLaptop[6].wlan[0].mac 	"number of internal collisions" 	0
[...]
attr title  "pause sent, count"
scalar ExamTaskNetwork.MainRouter.eth[1].encap 	pauseSent:sum 	0
attr title  "pause sent, sum"
scalar ExamTaskNetwork.MainRouter.eth[1].encap 	decapPk:count 	24980
attr interpolationmode  none
attr source  decapPk
attr title  "packets decapsulated, count"
scalar ExamTaskNetwork.MainRouter.eth[1].encap 	decapPk:sum(packetBytes) 	35647640
attr interpolationmode  none
attr source  decapPk
attr title  "packets decapsulated, sum(packetBytes)"
scalar ExamTaskNetwork.MainRouter.eth[1].encap 	encapPk:count 	24770
attr interpolationmode  none
attr source  encapPk
attr title  "packets encapsulated, count"
scalar ExamTaskNetwork.MainRouter.eth[1].encap 	encapPk:sum(packetBytes) 	35347760
attr interpolationmode  none
attr source  encapPk
attr title  "packets encapsulated, sum(packetBytes)"
scalar ExamTaskNetwork.MainRouter.eth[2].mac 	"simulated time" 	1000.0030632098
scalar ExamTaskNetwork.MainRouter.eth[2].mac 	full-duplex 	1
scalar ExamTaskNetwork.MainRouter.eth[2].mac 	"frames/sec sent" 	174.79146457707
scalar ExamTaskNetwork.MainRouter.eth[2].mac 	"frames/sec rcvd" 	0.0089999724311961
scalar ExamTaskNetwork.MainRouter.eth[2].mac 	"bits/sec sent" 	2100190.7026752
scalar ExamTaskNetwork.MainRouter.eth[2].mac 	"bits/sec rcvd" 	4.6079858847724
scalar ExamTaskNetwork.MainRouter.eth[2].mac 	"rx channel idle (%)" 	99.999994816016
scalar ExamTaskNetwork.MainRouter.eth[2].mac 	"rx channel utilization (%)" 	5.1839841203689e-06
scalar ExamTaskNetwork.MainRouter.eth[2].mac 	rxPkFromHL:count 	174792
attr interpolationmode  none
attr source  rxPkFromHL
attr title  "packet bytes from higher layer, count"
scalar ExamTaskNetwork.MainRouter.eth[2].mac 	rxPkFromHL:sum(packetBytes) 	262524642
attr interpolationmode  none
attr source  rxPkFromHL
attr title  "packet bytes from higher layer, sum(packetBytes)"
scalar ExamTaskNetwork.MainRouter.eth[2].mac 	rxPausePkUnits:count 	0
attr interpolationmode  none
attr title  "pause units received, count"
scalar ExamTaskNetwork.MainRouter.eth[2].mac 	rxPausePkUnits:sum 	0
attr interpolationmode  none
attr title  "pause units received, sum"
scalar ExamTaskNetwork.MainRouter.eth[2].mac 	txPausePkUnits:count 	0
attr interpolationmode  none
attr title  "pause units sent, count"
scalar ExamTaskNetwork.MainRouter.eth[2].mac 	txPausePkUnits:sum 	0
attr interpolationmode  none
attr title  "pause units sent, sum"
scalar ExamTaskNetwork.MainRouter.eth[2].mac 	txPk:count 	174792
attr interpolationmode  none
attr source  txPk
attr title  "packets transmitted, count"
scalar ExamTaskNetwork.MainRouter.eth[2].mac 	txPk:sum(packetBytes) 	262524642
attr interpolationmode  none
attr source  txPk
attr title  "packets transmitted, sum(packetBytes)"
scalar ExamTaskNetwork.MainRouter.eth[2].mac 	droppedPkNotForUs:count 	0
attr interpolationmode  none
attr source  dropPkNotForUs
attr title  "packets dropped/not for us, count"
scalar ExamTaskNetwork.MainRouter.eth[2].mac 	droppedPkNotForUs:sum(packetBytes) 	0
attr interpolationmode  none
attr source  dropPkNotForUs
attr title  "packets dropped/not for us, sum(packetBytes)"
scalar ExamTaskNetwork.MainRouter.eth[2].mac 	passedUpPk:count 	9
attr interpolationmode  none
attr source  packetSentToUpper
attr title  "packets passed to higher layer, count"
scalar ExamTaskNetwork.MainRouter.eth[2].mac 	passedUpPk:sum(packetBytes) 	576
attr interpolationmode  none
attr source  packetSentToUpper
attr title  "packets passed to higher layer, sum(packetBytes)"
scalar ExamTaskNetwork.MainRouter.eth[2].mac 	droppedPkBitError:count 	0
attr interpolationmode  none
attr source  dropPkBitError
attr title  "packets dropped/bit error, count"
scalar ExamTaskNetwork.MainRouter.eth[2].mac 	droppedPkBitError:sum(packetBytes) 	0
attr interpolationmode  none
attr source  dropPkBitError
attr title  "packets dropped/bit error, sum(packetBytes)"
scalar ExamTaskNetwork.MainRouter.eth[2].mac 	droppedPkIfaceDown:count 	0
attr interpolationmode  none
attr source  dropPkIfaceDown
attr title  "packets dropped/interface down, count"
scalar ExamTaskNetwork.MainRouter.eth[2].mac 	droppedPkIfaceDown:sum(packetBytes) 	0
attr interpolationmode  none
attr source  dropPkIfaceDown
attr title  "packets dropped/interface down, sum(packetBytes)"
scalar ExamTaskNetwork.MainRouter.eth[2].mac 	rxPkOk:count 	9
attr interpolationmode  none
attr source  rxPkOk
attr title  "packets received OK, count"
scalar ExamTaskNetwork.MainRouter.eth[2].mac 	rxPkOk:sum(packetBytes) 	576
attr interpolationmode  none
attr source  rxPkOk
attr title  "packets received OK, sum(packetBytes)"
scalar ExamTaskNetwork.MainRouter.eth[2].encap 	pauseSent:count 	0
attr title  "pause sent, count"
scalar ExamTaskNetwork.MainRouter.eth[2].encap 	pauseSent:sum 	0
attr title  "pause sent, sum"
scalar ExamTaskNetwork.MainRouter.eth[2].encap 	decapPk:count 	9
attr interpolationmode  none
attr source  decapPk
attr title  "packets decapsulated, count"
scalar ExamTaskNetwork.MainRouter.eth[2].encap 	decapPk:sum(packetBytes) 	252
attr interpolationmode  none
attr source  decapPk
attr title  "packets decapsulated, sum(packetBytes)"
scalar ExamTaskNetwork.MainRouter.eth[2].encap 	encapPk:count 	174792
attr interpolationmode  none
attr source  encapPk
attr title  "packets encapsulated, count"
scalar ExamTaskNetwork.MainRouter.eth[2].encap 	encapPk:sum(packetBytes) 	259378224
attr interpolationmode  none
attr source  encapPk
attr title  "packets encapsulated, sum(packetBytes)"
scalar ExamTaskNetwork.MainRouter.ppp[0].outputHook[0] 	duration 	1000.0030632098
scalar ExamTaskNetwork.MainRouter.ppp[0].outputHook[0] 	"total packets" 	1301615
scalar ExamTaskNetwork.MainRouter.ppp[0].outputHook[0] 	"total bits" 	6092427072
scalar ExamTaskNetwork.MainRouter.ppp[0].outputHook[0] 	"avg throughput (bit/s)" 	6092408.4096747
scalar ExamTaskNetwork.MainRouter.ppp[0].outputHook[0] 	"avg packets/s" 	1301.6110128924
scalar ExamTaskNetwork.MainRouter.ppp[0].inputHook[0] 	duration 	1000.0030632098
scalar ExamTaskNetwork.MainRouter.ppp[0].inputHook[0] 	"total packets" 	918882
scalar ExamTaskNetwork.MainRouter.ppp[0].inputHook[0] 	"total bits" 	6587382496
scalar ExamTaskNetwork.MainRouter.ppp[0].inputHook[0] 	"avg throughput (bit/s)" 	6587362.3175271
scalar ExamTaskNetwork.MainRouter.ppp[0].inputHook[0] 	"avg packets/s" 	918.87918528026
statistic ExamTaskNetwork.MainRouter.ppp[0].queue 	queueingTime:histogram
field count 1176538
field mean 0.0018761610324676
field stddev 0.0042350196970246
field sum 2207.3747488174
field sqrsum 25.243042590202
field min 0
field max 0.041378363698
attr interpolationmode  none
attr title  "queueing time, histogram"
bin	-INF	0
bin	-0.000238293336	0
bin	-0.0002065208912	0
bin	-0.0001747484464	0
bin	-0.0001429760016	0
bin	-0.0001112035568	0
bin	-7.9431112e-05	0
bin	-4.76586672e-05	0
bin	-1.58862224e-05	414148
bin	1.58862224e-05	6762
bin	4.76586672e-05	4954
bin	7.9431112e-05	11868
bin	0.0001112035568	4933
bin	0.0001429760016	6071
bin	0.0001747484464	4803
bin	0.0002065208912	3446
bin	0.000238293336	3068
bin	0.0002700657808	2369
bin	0.0003018382256	2542
bin	0.0003336106704	2951
bin	0.0003653831152	2227
bin	0.00039715556	2088
bin	0.0004289280048	2019
bin	0.0004607004496	2219
bin	0.0004924728944	2288
bin	0.0005242453392	2729
bin	0.000556017784	2990
bin	0.0005877902288	4766
bin	0.0006195626736	4902
bin	0.0006513351184	3301
bin	0.0006831075632	2338
bin	0.000714880008	676756
scalar ExamTaskNetwork.MainRouter.ppp[0].queue 	dropPk:count 	125077
attr interpolationmode  none
attr source  dropPkByQueue
attr title  "dropped packets, count"
scalar ExamTaskNetwork.MainRouter.ppp[0].queue 	dropPk:sum(packetBytes) 	90385686
attr interpolationmode  none
attr source  dropPkByQueue
attr title  "dropped packets, sum(packetBytes)"
scalar ExamTaskNetwork.MainRouter.ppp[0].queue 	queueLength:max 	50
attr interpolationmode  sample-hold
attr title  "queue length, max"
scalar ExamTaskNetwork.MainRouter.ppp[0].queue 	queueLength:timeavg 	2.2073679871726
attr interpolationmode  sample-hold
attr title  "queue length, timeavg"
scalar ExamTaskNetwork.MainRouter.ppp[0].queue 	rcvdPk:count 	1301615
attr interpolationmode  none
attr title  "received packets, count"
scalar ExamTaskNetwork.MainRouter.ppp[0].queue 	rcvdPk:sum(packetBytes) 	761553384
attr interpolationmode  none
attr title  "received packets, sum(packetBytes)"
scalar ExamTaskNetwork.MainRouter.ppp[0].ppp 	rcvdPkFromHL:count 	1176538
attr interpolationmode  none
attr source  packetReceivedFromUpper
attr title  "packets received from higher layer, count"
scalar ExamTaskNetwork.MainRouter.ppp[0].ppp 	rcvdPkFromHL:sum(packetBytes) 	671167698
attr interpolationmode  none
attr source  packetReceivedFromUpper
attr title  "packets received from higher layer, sum(packetBytes)"
scalar ExamTaskNetwork.MainRouter.ppp[0].ppp 	passedUpPk:count 	918882
attr interpolationmode  none
attr source  packetSentToUpper
attr title  "packets passed to higher layer, count"
scalar ExamTaskNetwork.MainRouter.ppp[0].ppp 	passedUpPk:sum(packetBytes) 	823422812
attr interpolationmode  none
attr source  packetSentToUpper
attr title  "packets passed to higher layer, sum(packetBytes)"
scalar ExamTaskNetwork.MainRouter.ppp[0].ppp 	txPk:count 	1176538
attr interpolationmode  none
attr source  packetSentToLower
attr title  "packets transmitted, count"
scalar ExamTaskNetwork.MainRouter.ppp[0].ppp 	txPk:sum(packetBytes) 	679403464
attr interpolationmode  none
attr source  packetSentToLower
attr title  "packets transmitted, sum(packetBytes)"
scalar ExamTaskNetwork.MainRouter.ppp[0].ppp 	droppedPkBitError:count 	0
attr interpolationmode  none
attr source  dropPkBitError
attr title  "packets dropped/bit error, count"
scalar ExamTaskNetwork.MainRouter.ppp[0].ppp 	droppedPkBitError:sum(packetBytes) 	0
attr interpolationmode  none
attr source  dropPkBitError
attr title  "packets dropped/bit error, sum(packetBytes)"
scalar ExamTaskNetwork.MainRouter.ppp[0].ppp 	droppedPkIfaceDown:count 	0
attr interpolationmode  none
attr source  dropPkIfaceDown
attr title  "packets dropped/interface down, count"
scalar ExamTaskNetwork.MainRouter.ppp[0].ppp 	droppedPkIfaceDown:sum(packetBytes) 	0
attr interpolationmode  none
attr source  dropPkIfaceDown
attr title  "packets dropped/interface down, sum(packetBytes)"
scalar ExamTaskNetwork.MainRouter.ppp[0].ppp 	rxPkOk:count 	918882
attr interpolationmode  none
attr source  rxPkOk
attr title  "packets received OK, count"
scalar ExamTaskNetwork.MainRouter.ppp[0].ppp 	rxPkOk:sum(packetBytes) 	829854986
attr interpolationmode  none
attr source  rxPkOk
attr title  "packets received OK, sum(packetBytes)"
scalar ExamTaskNetwork.MainRouter.ppp[0].ppp 	txState:timeavg 	0.45293425483768
attr interpolationmode  sample-hold
attr title  "tx state, timeavg"
scalar ExamTaskNetwork.Internet.networkLayer.arp 	initiatedARPResolution:count 	427
attr title  "ARP initiated resolutions, count"
scalar ExamTaskNetwork.Internet.networkLayer.arp 	sentReply:count 	1
attr title  "ARP replies sent, count"
scalar ExamTaskNetwork.Internet.networkLayer.arp 	sentReq:count 	427
attr title  "ARP request sent, count"
scalar ExamTaskNetwork.Internet.networkLayer.arp 	failedARPResolution:count 	0
attr title  "ARP failed resolutions, count"
scalar ExamTaskNetwork.Internet.networkLayer.arp 	completedARPResolution:count 	428
attr title  "ARP completed resolutions, count"
scalar ExamTaskNetwork.Internet.lo0.lo 	rcvdPkFromHL:count 	0
attr interpolationmode  none
attr source  packetReceivedFromUpper
attr title  "packets received from higher layer, count"
scalar ExamTaskNetwork.Internet.lo0.lo 	rcvdPkFromHL:sum(packetBytes) 	0
attr interpolationmode  none
attr source  packetReceivedFromUpper
attr title  "packets received from higher layer, sum(packetBytes)"
scalar ExamTaskNetwork.Internet.lo0.lo 	passedUpPk:count 	0
attr interpolationmode  none
attr source  packetSentToUpper
attr title  "packets passed to higher layer, count"
scalar ExamTaskNetwork.Internet.lo0.lo 	passedUpPk:sum(packetBytes) 	0
attr interpolationmode  none
attr source  packetSentToUpper
attr title  "packets passed to higher layer, sum(packetBytes)"
scalar ExamTaskNetwork.Internet.lo0.lo 	droppedPkBitError:count 	0
attr interpolationmode  none
attr source  dropPkBitError
attr title  "packets dropped/bit error, count"
scalar ExamTaskNetwork.Internet.lo0.lo 	droppedPkBitError:sum(packetBytes) 	0
attr interpolationmode  none
attr source  dropPkBitError
attr title  "packets dropped/bit error, sum(packetBytes)"
scalar ExamTaskNetwork.Internet.eth[0].mac 	"simulated time" 	1000.0030632098
scalar ExamTaskNetwork.Internet.eth[0].mac 	full-duplex 	1
scalar ExamTaskNetwork.Internet.eth[0].mac 	"frames/sec sent" 	1277.0780880419
scalar ExamTaskNetwork.Internet.eth[0].mac 	"frames/sec rcvd" 	1060.0497528452
scalar ExamTaskNetwork.Internet.eth[0].mac 	"bits/sec sent" 	6081702.0024707
scalar ExamTaskNetwork.Internet.eth[0].mac 	"bits/sec rcvd" 	4508443.4216918
scalar ExamTaskNetwork.Internet.eth[0].mac 	"rx channel idle (%)" 	95.423713394126
scalar ExamTaskNetwork.Internet.eth[0].mac 	"rx channel utilization (%)" 	4.5762866058735
scalar ExamTaskNetwork.Internet.eth[0].mac 	rxPkFromHL:count 	1277082
attr interpolationmode  none
attr source  rxPkFromHL
attr title  "packet bytes from higher layer, count"
scalar ExamTaskNetwork.Internet.eth[0].mac 	rxPkFromHL:sum(packetBytes) 	760215079
attr interpolationmode  none
attr source  rxPkFromHL
attr title  "packet bytes from higher layer, sum(packetBytes)"
scalar ExamTaskNetwork.Internet.eth[0].mac 	rxPausePkUnits:count 	0
attr interpolationmode  none
attr title  "pause units received, count"
scalar ExamTaskNetwork.Internet.eth[0].mac 	rxPausePkUnits:sum 	0
attr interpolationmode  none
attr title  "pause units received, sum"
scalar ExamTaskNetwork.Internet.eth[0].mac 	txPausePkUnits:count 	0
attr interpolationmode  none
attr title  "pause units sent, count"
scalar ExamTaskNetwork.Internet.eth[0].mac 	txPausePkUnits:sum 	0
attr interpolationmode  none
attr title  "pause units sent, sum"
scalar ExamTaskNetwork.Internet.eth[0].mac 	txPk:count 	1277082
attr interpolationmode  none
attr source  txPk
attr title  "packets transmitted, count"
scalar ExamTaskNetwork.Internet.eth[0].mac 	txPk:sum(packetBytes) 	760215079
attr interpolationmode  none
attr source  txPk
attr title  "packets transmitted, sum(packetBytes)"
scalar ExamTaskNetwork.Internet.eth[0].mac 	droppedPkNotForUs:count 	0
attr interpolationmode  none
attr source  dropPkNotForUs
attr title  "packets dropped/not for us, count"
scalar ExamTaskNetwork.Internet.eth[0].mac 	droppedPkNotForUs:sum(packetBytes) 	0
attr interpolationmode  none
attr source  dropPkNotForUs
attr title  "packets dropped/not for us, sum(packetBytes)"
scalar ExamTaskNetwork.Internet.eth[0].mac 	passedUpPk:count 	1060053
attr interpolationmode  none
attr source  packetSentToUpper
attr title  "packets passed to higher layer, count"
scalar ExamTaskNetwork.Internet.eth[0].mac 	passedUpPk:sum(packetBytes) 	563557154
attr interpolationmode  none
attr source  packetSentToUpper
attr title  "packets passed to higher layer, sum(packetBytes)"
scalar ExamTaskNetwork.Internet.eth[0].mac 	droppedPkBitError:count 	0
attr interpolationmode  none
attr source  dropPkBitError
attr title  "packets dropped/bit error, count"
scalar ExamTaskNetwork.Internet.eth[0].mac 	droppedPkBitError:sum(packetBytes) 	0
attr interpolationmode  none
attr source  dropPkBitError
attr title  "packets dropped/bit error, sum(packetBytes)"
scalar ExamTaskNetwork.Internet.eth[0].mac 	droppedPkIfaceDown:count 	0
attr interpolationmode  none
attr source  dropPkIfaceDown
attr title  "packets dropped/interface down, count"
scalar ExamTaskNetwork.Internet.eth[0].mac 	droppedPkIfaceDown:sum(packetBytes) 	0
attr interpolationmode  none
attr source  dropPkIfaceDown
attr title  "packets dropped/interface down, sum(packetBytes)"
scalar ExamTaskNetwork.Internet.eth[0].mac 	rxPkOk:count 	1060053
attr interpolationmode  none
attr source  rxPkOk
attr title  "packets received OK, count"
scalar ExamTaskNetwork.Internet.eth[0].mac 	rxPkOk:sum(packetBytes) 	563557154
attr interpolationmode  none
attr source  rxPkOk
attr title  "packets received OK, sum(packetBytes)"
scalar ExamTaskNetwork.Internet.eth[0].encap 	pauseSent:count 	0
attr title  "pause sent, count"
scalar ExamTaskNetwork.Internet.eth[0].encap 	pauseSent:sum 	0
attr title  "pause sent, sum"
scalar ExamTaskNetwork.Internet.eth[0].encap 	decapPk:count 	1060053
attr interpolationmode  none
attr source  decapPk
attr title  "packets decapsulated, count"
scalar ExamTaskNetwork.Internet.eth[0].encap 	decapPk:sum(packetBytes) 	535515120
attr interpolationmode  none
attr source  decapPk
attr title  "packets decapsulated, sum(packetBytes)"
scalar ExamTaskNetwork.Internet.eth[0].encap 	encapPk:count 	1277082
attr interpolationmode  none
attr source  encapPk
attr title  "packets encapsulated, count"
scalar ExamTaskNetwork.Internet.eth[0].encap 	encapPk:sum(packetBytes) 	725919730
attr interpolationmode  none
attr source  encapPk
attr title  "packets encapsulated, sum(packetBytes)"
scalar ExamTaskNetwork.Internet.tcpApp[0] 	sentPk:count 	778
attr interpolationmode  none
attr source  sentPk
attr title  "packets sent, count"
scalar ExamTaskNetwork.Internet.tcpApp[0] 	sentPk:sum(packetBytes) 	522325806
attr interpolationmode  none
attr source  sentPk
attr title  "packets sent, sum(packetBytes)"
scalar ExamTaskNetwork.Internet.tcpApp[0] 	rcvdPk:count 	778
attr interpolationmode  none
attr source  rcvdPk
attr title  "packets received, count"
scalar ExamTaskNetwork.Internet.tcpApp[0] 	rcvdPk:sum(packetBytes) 	6373376
attr interpolationmode  none
attr source  rcvdPk
attr title  "packets received, sum(packetBytes)"
statistic ExamTaskNetwork.Internet.tcpApp[0] 	endToEndDelay:histogram
field count 778
field mean 0.96848701648276
field stddev 2.2642990329907
field sum 753.48289882359
field sqrsum 4713.4563407461
field min 0.207785316946
field max 21.40371917642
attr interpolationmode  none
attr source  messageAge(rcvdPk)
attr title  "end-to-end delay, histogram"
attr unit  s
bin	-INF	0
bin	-1.388294546452	0
bin	-1.1736203871216	0
bin	-0.9589462277912	0
bin	-0.7442720684608	0
bin	-0.5295979091304	0
bin	-0.3149237498	0
bin	-0.1002495904696	0
bin	0.1144245688608	628
bin	0.3290987281912	31
bin	0.5437728875216	0
bin	0.758447046852	0
bin	0.9731212061824	0
bin	1.1877953655128	0
bin	1.4024695248432	0
bin	1.6171436841736	0
bin	1.831817843504	0
bin	2.0464920028344	0
bin	2.2611661621648	0
bin	2.4758403214952	0
bin	2.6905144808256	3
bin	2.905188640156	28
bin	3.1198627994864	57
bin	3.3345369588168	11
bin	3.5492111181472	0
bin	3.7638852774776	0
bin	3.978559436808	0
bin	4.1932335961384	0
bin	4.4079077554688	0
bin	4.6225819147992	0
bin	4.8372560741296	0
bin	5.05193023346	20
scalar ExamTaskNetwork.Internet.tcpApp[1] 	rcvdPk:count 	321286
attr interpolationmode  none
attr source  rcvdPk
attr title  "packets received, count"
scalar ExamTaskNetwork.Internet.tcpApp[1] 	rcvdPk:sum(packetBytes) 	492420314
attr interpolationmode  none
attr source  rcvdPk
attr title  "packets received, sum(packetBytes)"
statistic ExamTaskNetwork.Internet.tcpApp[1] 	endToEndDelay:histogram
field count 321286
field mean 0
field stddev 0
field sum 0
field sqrsum 0
field min 0
field max 0
attr interpolationmode  none
attr source  messageAge(rcvdPk)
attr title  "end-to-end delay, histogram"
attr unit  s
bin	-INF	0
bin	-0.5	0
bin	-0.46666666666667	0
bin	-0.43333333333333	0
bin	-0.4	0
bin	-0.36666666666667	0
bin	-0.33333333333333	0
bin	-0.3	0
bin	-0.26666666666667	0
bin	-0.23333333333333	0
bin	-0.2	0
bin	-0.16666666666667	0
bin	-0.13333333333333	0
bin	-0.1	0
bin	-0.066666666666667	0
bin	-0.033333333333333	0
bin	0	321286
bin	0.033333333333333	0
bin	0.066666666666667	0
bin	0.1	0
bin	0.13333333333333	0
bin	0.16666666666667	0
bin	0.2	0
bin	0.23333333333333	0
bin	0.26666666666667	0
bin	0.3	0
bin	0.33333333333333	0
bin	0.36666666666667	0
bin	0.4	0
bin	0.43333333333333	0
bin	0.46666666666667	0
bin	0.5	0
