version 2
run ExamTaskNetwork-42-20160820-18:12:58-3405
attr configname ExamTaskNetwork
attr datetime 20160820-18:12:58
attr experiment ExamTaskNetwork
attr inifile omnetpp.ini
attr iterationvars "$simtime=1000, $0=10"
attr iterationvars2 "$simtime=1000, $0=10, $repetition=12"
attr measurement "$simtime=1000, $0=10"
attr network ExamTaskNetwork
attr processid 3405
attr repetition 12
attr replication #12
attr resultdir results
attr runnumber 42
attr seedset 42
attr simtime 1000

scalar . 	simtime 	1000
scalar ExamTaskNetwork.ConferenceLaptop.networkLayer.arp 	initiatedARPResolution:count 	9
attr title  "ARP initiated resolutions, count"
scalar ExamTaskNetwork.ConferenceLaptop.networkLayer.arp 	sentReply:count 	6
attr title  "ARP replies sent, count"
scalar ExamTaskNetwork.ConferenceLaptop.networkLayer.arp 	sentReq:count 	9
attr title  "ARP request sent, count"
scalar ExamTaskNetwork.ConferenceLaptop.networkLayer.arp 	failedARPResolution:count 	0
attr title  "ARP failed resolutions, count"
scalar ExamTaskNetwork.ConferenceLaptop.networkLayer.arp 	completedARPResolution:count 	42
attr title  "ARP completed resolutions, count"
scalar ExamTaskNetwork.ConferenceLaptop.lo0.lo 	rcvdPkFromHL:count 	0
attr interpolationmode  none
attr source  packetReceivedFromUpper
attr title  "packets received from higher layer, count"
scalar ExamTaskNetwork.ConferenceLaptop.lo0.lo 	rcvdPkFromHL:sum(packetBytes) 	0
attr interpolationmode  none
attr source  packetReceivedFromUpper
attr title  "packets received from higher layer, sum(packetBytes)"
scalar ExamTaskNetwork.ConferenceLaptop.lo0.lo 	passedUpPk:count 	0
attr interpolationmode  none
attr source  packetSentToUpper
attr title  "packets passed to higher layer, count"
scalar ExamTaskNetwork.ConferenceLaptop.lo0.lo 	passedUpPk:sum(packetBytes) 	0
attr interpolationmode  none
attr source  packetSentToUpper
attr title  "packets passed to higher layer, sum(packetBytes)"
scalar ExamTaskNetwork.ConferenceLaptop.lo0.lo 	droppedPkBitError:count 	0
attr interpolationmode  none
attr source  dropPkBitError
attr title  "packets dropped/bit error, count"
scalar ExamTaskNetwork.ConferenceLaptop.lo0.lo 	droppedPkBitError:sum(packetBytes) 	0
attr interpolationmode  none
attr source  dropPkBitError
attr title  "packets dropped/bit error, sum(packetBytes)"
scalar ExamTaskNetwork.ConferenceLaptop.wlan[0].agent 	dropConfirm:count 	0
attr title  "dropped confirms, count"
scalar ExamTaskNetwork.ConferenceLaptop.wlan[0].agent 	acceptConfirm:count 	48
attr title  "accepted confirms, count"
scalar ExamTaskNetwork.ConferenceLaptop.wlan[0].agent 	sentRequest:count 	48
attr title  "sent requests, count"
scalar ExamTaskNetwork.ConferenceLaptop.wlan[0].mgmt 	dropPkByQueue:count 	0
attr interpolationmode  none
attr source  dropPkByQueue
attr title  "packets dropped by queue, count"
scalar ExamTaskNetwork.ConferenceLaptop.wlan[0].mgmt 	dropPkByQueue:sum(packetBytes) 	0
attr interpolationmode  none
attr source  dropPkByQueue
attr title  "packets dropped by queue, sum(packetBytes)"
scalar ExamTaskNetwork.ConferenceLaptop.wlan[0].mgmt 	dataQueueLen:max 	3
attr interpolationmode  sample-hold
attr title  "data queue length, max"
scalar ExamTaskNetwork.ConferenceLaptop.wlan[0].mgmt 	dataQueueLen:timeavg 	0.00074041142635725
attr interpolationmode  sample-hold
attr title  "data queue length, timeavg"
scalar ExamTaskNetwork.ConferenceLaptop.wlan[0].mac 	"number of received packets" 	24751
scalar ExamTaskNetwork.ConferenceLaptop.wlan[0].mac 	"number of collisions" 	40459
scalar ExamTaskNetwork.ConferenceLaptop.wlan[0].mac 	"number of internal collisions" 	0
scalar ExamTaskNetwork.ConferenceLaptop.wlan[0].mac 	"number of retry for AC 0" 	7065
scalar ExamTaskNetwork.ConferenceLaptop.wlan[0].mac 	"sent and received bits" 	291640576
scalar ExamTaskNetwork.ConferenceLaptop.wlan[0].mac 	"sent packet within AC 0" 	24860
scalar ExamTaskNetwork.ConferenceLaptop.wlan[0].mac 	"sent in TXOP " 	0
scalar ExamTaskNetwork.ConferenceLaptop.wlan[0].mac 	"sentWithoutRetry AC 0" 	19672
scalar ExamTaskNetwork.ConferenceLaptop.wlan[0].mac 	"numGivenUp AC 0" 	2
scalar ExamTaskNetwork.ConferenceLaptop.wlan[0].mac 	"numDropped AC 0" 	0
scalar ExamTaskNetwork.ConferenceLaptop.wlan[0].mac 	rcvdPkFromHL:count 	24878
attr interpolationmode  none
attr source  packetReceivedFromUpper
attr title  "packets received from higher layer, count"
scalar ExamTaskNetwork.ConferenceLaptop.wlan[0].mac 	rcvdPkFromHL:sum(packetBytes) 	36458012
attr interpolationmode  none
attr source  packetReceivedFromUpper
attr title  "packets received from higher layer, sum(packetBytes)"
scalar ExamTaskNetwork.ConferenceLaptop.wlan[0].mac 	passedUpPk:count 	34074
attr interpolationmode  none
attr source  packetSentToUpper
attr title  "packets passed to higher layer, count"
scalar ExamTaskNetwork.ConferenceLaptop.wlan[0].mac 	passedUpPk:sum(packetBytes) 	37025246
attr interpolationmode  none
attr source  packetSentToUpper
attr title  "packets passed to higher layer, sum(packetBytes)"
scalar ExamTaskNetwork.ConferenceLaptop.wlan[0].mac 	rcvdPkFromLL:count 	3256193
attr interpolationmode  none
attr source  packetReceivedFromLower
attr title  "packets received from lower layer, count"
scalar ExamTaskNetwork.ConferenceLaptop.wlan[0].mac 	rcvdPkFromLL:sum(packetBytes) 	1287381096
attr interpolationmode  none
attr source  packetReceivedFromLower
attr title  "packets received from lower layer, sum(packetBytes)"
scalar ExamTaskNetwork.ConferenceLaptop.wlan[0].mac 	sentDownPk:count 	56694
attr interpolationmode  none
attr source  packetSentToLower
attr title  "packets sent to lower layer, count"
scalar ExamTaskNetwork.ConferenceLaptop.wlan[0].mac 	sentDownPk:sum(packetBytes) 	47134226
attr interpolationmode  none
attr source  packetSentToLower
attr title  "packets sent to lower layer, sum(packetBytes)"
scalar ExamTaskNetwork.ConferenceLaptop.wlan[0].radio 	lossRate:min 	0
attr interpolationmode  backward-sample-hold
attr title  "packet loss rate, min"
scalar ExamTaskNetwork.ConferenceLaptop.wlan[0].radio 	lossRate:max 	0.14
attr interpolationmode  backward-sample-hold
attr title  "packet loss rate, max"
scalar ExamTaskNetwork.ConferenceLaptop.wlan[0].radio 	lossRate:timeavg 	0.01139428642352
attr interpolationmode  backward-sample-hold
attr title  "packet loss rate, timeavg"
statistic ExamTaskNetwork.ConferenceLaptop.wlan[0].radio 	channelNo:histogram
field count 1
field mean 0
field stddev -nan
field sum 0
field sqrsum 0
field min 0
field max 0
attr interpolationmode  sample-hold
attr title  "channel no, histogram"
bin	-INF	0
bin	-0.5	0
bin	-0.46666666666667	0
bin	-0.43333333333333	0
bin	-0.4	0
bin	-0.36666666666667	0
bin	-0.33333333333333	0
bin	-0.3	0
bin	-0.26666666666667	0
bin	-0.23333333333333	0
bin	-0.2	0
bin	-0.16666666666667	0
bin	-0.13333333333333	0
bin	-0.1	0
bin	-0.066666666666667	0
bin	-0.033333333333333	0
bin	0	1
bin	0.033333333333333	0
bin	0.066666666666667	0
bin	0.1	0
bin	0.13333333333333	0
bin	0.16666666666667	0
bin	0.2	0
bin	0.23333333333333	0
bin	0.26666666666667	0
bin	0.3	0
bin	0.33333333333333	0
bin	0.36666666666667	0
bin	0.4	0
bin	0.43333333333333	0
bin	0.46666666666667	0
bin	0.5	0
scalar ExamTaskNetwork.ConferenceLaptop.wlan[0].radio 	radioState:count 	6633719
attr interpolationmode  sample-hold
attr title  "radio state (enum), count"
scalar ExamTaskNetwork.ConferenceLaptop.wlan[0].radio 	bitrate:min 	54000000
attr interpolationmode  sample-hold
attr title  "tx bitrate, min"
attr unit  bps
scalar ExamTaskNetwork.ConferenceLaptop.wlan[0].radio 	bitrate:max 	54000000
attr interpolationmode  sample-hold
attr title  "tx bitrate, max"
attr unit  bps
scalar ExamTaskNetwork.ConferenceLaptop.wlan[0].radio 	bitrate:timeavg 	54000000
attr interpolationmode  sample-hold
attr title  "tx bitrate, timeavg"
attr unit  bps
scalar ExamTaskNetwork.ConferenceLaptop.udpApp[0] 	"packets sent" 	24963
scalar ExamTaskNetwork.ConferenceLaptop.udpApp[0] 	"packets received" 	24526
scalar ExamTaskNetwork.ConferenceLaptop.udpApp[0] 	lateRatio 	8.1546117144171e-05
scalar ExamTaskNetwork.ConferenceLaptop.udpApp[0] 	"discarded packets" 	2
statistic ExamTaskNetwork.ConferenceLaptop.udpApp[0] 	endToEndDelay:stats
field count 24526
field mean 0.030731899832571
field stddev 0.016847137268807
field sum 753.73057529364
field sqrsum 30.124406028298
field min 0.016442990524
field max 0.103191710953
attr source  VoIPPacketDelay
attr title  "VoIP Packet End-to-End Delay, stats"
attr unit  s
scalar ExamTaskNetwork.ConferenceLaptop.udpApp[0] 	sentPk:count 	24963
attr interpolationmode  none
attr source  sentPk
attr title  "packets sent, count"
scalar ExamTaskNetwork.ConferenceLaptop.udpApp[0] 	sentPk:sum(packetBytes) 	34948200
attr interpolationmode  none
attr source  sentPk
attr title  "packets sent, sum(packetBytes)"
scalar ExamTaskNetwork.ConferenceLaptop.udpApp[0] 	rcvdPk:count 	24526
attr interpolationmode  none
attr source  rcvdPk
attr title  "packets received, count"
scalar ExamTaskNetwork.ConferenceLaptop.udpApp[0] 	rcvdPk:sum(packetBytes) 	34336400
attr interpolationmode  none
attr source  rcvdPk
attr title  "packets received, sum(packetBytes)"
statistic ExamTaskNetwork.ConferenceLaptop.udpApp[0] 	rcvdPkLifetime:stats
field count 24526
field mean 0.030731899832571
field stddev 0.016847137268807
field sum 753.73057529364
field sqrsum 30.124406028298
field min 0.016442990524
field max 0.103191710953
attr interpolationmode  none
attr source  messageAge(rcvdPk)
attr title  "received packet lifetime, stats"
attr unit  s
scalar ExamTaskNetwork.ConferenceLaptop.udp 	droppedPkBadChecksum:count 	0
attr interpolationmode  none
attr title  "packets dropped (checksum error), count"
scalar ExamTaskNetwork.ConferenceLaptop.udp 	droppedPkWrongPort:count 	0
attr interpolationmode  none
attr title  "packets dropped (wrong port), count"
scalar ExamTaskNetwork.ConferenceLaptop.udp 	passedUpPk:count 	24526
attr interpolationmode  none
attr title  "packets passed up, count"
scalar ExamTaskNetwork.ConferenceLaptop.udp 	sentPk:count 	24963
attr interpolationmode  none
attr source  sentPk
attr title  "packets sent, count"
scalar ExamTaskNetwork.ConferenceLaptop.udp 	sentPk:sum(packetBytes) 	35147904
attr interpolationmode  none
attr source  sentPk
attr title  "packets sent, sum(packetBytes)"
scalar ExamTaskNetwork.ConferenceLaptop.udp 	rcvdPk:count 	24526
attr interpolationmode  none
attr source  rcvdPk
attr title  "packets received, count"
scalar ExamTaskNetwork.ConferenceLaptop.udp 	rcvdPk:sum(packetBytes) 	34532608
attr interpolationmode  none
attr source  rcvdPk
attr title  "packets received, sum(packetBytes)"
scalar ExamTaskNetwork.FTPLaptop.networkLayer.arp 	initiatedARPResolution:count 	9
attr title  "ARP initiated resolutions, count"
scalar ExamTaskNetwork.FTPLaptop.networkLayer.arp 	sentReply:count 	6
attr title  "ARP replies sent, count"
scalar ExamTaskNetwork.FTPLaptop.networkLayer.arp 	sentReq:count 	10
attr title  "ARP request sent, count"
scalar ExamTaskNetwork.FTPLaptop.networkLayer.arp 	failedARPResolution:count 	0
attr title  "ARP failed resolutions, count"
scalar ExamTaskNetwork.FTPLaptop.networkLayer.arp 	completedARPResolution:count 	44
attr title  "ARP completed resolutions, count"
scalar ExamTaskNetwork.FTPLaptop.lo0.lo 	rcvdPkFromHL:count 	0
attr interpolationmode  none
attr source  packetReceivedFromUpper
attr title  "packets received from higher layer, count"
scalar ExamTaskNetwork.FTPLaptop.lo0.lo 	rcvdPkFromHL:sum(packetBytes) 	0
attr interpolationmode  none
attr source  packetReceivedFromUpper
attr title  "packets received from higher layer, sum(packetBytes)"
scalar ExamTaskNetwork.FTPLaptop.lo0.lo 	passedUpPk:count 	0
attr interpolationmode  none
attr source  packetSentToUpper
attr title  "packets passed to higher layer, count"
scalar ExamTaskNetwork.FTPLaptop.lo0.lo 	passedUpPk:sum(packetBytes) 	0
attr interpolationmode  none
attr source  packetSentToUpper
attr title  "packets passed to higher layer, sum(packetBytes)"
scalar ExamTaskNetwork.FTPLaptop.lo0.lo 	droppedPkBitError:count 	0
attr interpolationmode  none
attr source  dropPkBitError
attr title  "packets dropped/bit error, count"
scalar ExamTaskNetwork.FTPLaptop.lo0.lo 	droppedPkBitError:sum(packetBytes) 	0
attr interpolationmode  none
attr source  dropPkBitError
attr title  "packets dropped/bit error, sum(packetBytes)"
scalar ExamTaskNetwork.FTPLaptop.wlan[0].agent 	dropConfirm:count 	0
attr title  "dropped confirms, count"
scalar ExamTaskNetwork.FTPLaptop.wlan[0].agent 	acceptConfirm:count 	48
attr title  "accepted confirms, count"
scalar ExamTaskNetwork.FTPLaptop.wlan[0].agent 	sentRequest:count 	48
attr title  "sent requests, count"
scalar ExamTaskNetwork.FTPLaptop.wlan[0].mgmt 	dropPkByQueue:count 	1979
attr interpolationmode  none
attr source  dropPkByQueue
attr title  "packets dropped by queue, count"
scalar ExamTaskNetwork.FTPLaptop.wlan[0].mgmt 	dropPkByQueue:sum(packetBytes) 	3063488
attr interpolationmode  none
attr source  dropPkByQueue
attr title  "packets dropped by queue, sum(packetBytes)"
scalar ExamTaskNetwork.FTPLaptop.wlan[0].mgmt 	dataQueueLen:max 	50
attr interpolationmode  sample-hold
attr title  "data queue length, max"
scalar ExamTaskNetwork.FTPLaptop.wlan[0].mgmt 	dataQueueLen:timeavg 	4.6448244800985
attr interpolationmode  sample-hold
attr title  "data queue length, timeavg"
scalar ExamTaskNetwork.FTPLaptop.wlan[0].mac 	"number of received packets" 	507586
scalar ExamTaskNetwork.FTPLaptop.wlan[0].mac 	"number of collisions" 	3261
scalar ExamTaskNetwork.FTPLaptop.wlan[0].mac 	"number of internal collisions" 	0
scalar ExamTaskNetwork.FTPLaptop.wlan[0].mac 	"number of retry for AC 0" 	78375
scalar ExamTaskNetwork.FTPLaptop.wlan[0].mac 	"sent and received bits" 	6421032096
scalar ExamTaskNetwork.FTPLaptop.wlan[0].mac 	"sent packet within AC 0" 	518624
scalar ExamTaskNetwork.FTPLaptop.wlan[0].mac 	"sent in TXOP " 	0
scalar ExamTaskNetwork.FTPLaptop.wlan[0].mac 	"sentWithoutRetry AC 0" 	454270
scalar ExamTaskNetwork.FTPLaptop.wlan[0].mac 	"numGivenUp AC 0" 	1
scalar ExamTaskNetwork.FTPLaptop.wlan[0].mac 	"numDropped AC 0" 	0
scalar ExamTaskNetwork.FTPLaptop.wlan[0].mac 	rcvdPkFromHL:count 	518642
attr interpolationmode  none
attr source  packetReceivedFromUpper
attr title  "packets received from higher layer, count"
scalar ExamTaskNetwork.FTPLaptop.wlan[0].mac 	rcvdPkFromHL:sum(packetBytes) 	802632108
attr interpolationmode  none
attr source  packetReceivedFromUpper
attr title  "packets received from higher layer, sum(packetBytes)"
scalar ExamTaskNetwork.FTPLaptop.wlan[0].mac 	passedUpPk:count 	516907
attr interpolationmode  none
attr source  packetSentToUpper
attr title  "packets passed to higher layer, count"
scalar ExamTaskNetwork.FTPLaptop.wlan[0].mac 	passedUpPk:sum(packetBytes) 	42345088
attr interpolationmode  none
attr source  packetSentToUpper
attr title  "packets passed to higher layer, sum(packetBytes)"
scalar ExamTaskNetwork.FTPLaptop.wlan[0].mac 	rcvdPkFromLL:count 	2208286
attr interpolationmode  none
attr source  packetReceivedFromLower
attr title  "packets received from lower layer, count"
scalar ExamTaskNetwork.FTPLaptop.wlan[0].mac 	rcvdPkFromLL:sum(packetBytes) 	444943758
attr interpolationmode  none
attr source  packetReceivedFromLower
attr title  "packets received from lower layer, sum(packetBytes)"
scalar ExamTaskNetwork.FTPLaptop.wlan[0].mac 	sentDownPk:count 	1104602
attr interpolationmode  none
attr source  packetSentToLower
attr title  "packets sent to lower layer, count"
scalar ExamTaskNetwork.FTPLaptop.wlan[0].mac 	sentDownPk:sum(packetBytes) 	931010661
attr interpolationmode  none
attr source  packetSentToLower
attr title  "packets sent to lower layer, sum(packetBytes)"
scalar ExamTaskNetwork.FTPLaptop.wlan[0].radio 	lossRate:min 	0
attr interpolationmode  backward-sample-hold
attr title  "packet loss rate, min"
scalar ExamTaskNetwork.FTPLaptop.wlan[0].radio 	lossRate:max 	0.18
attr interpolationmode  backward-sample-hold
attr title  "packet loss rate, max"
scalar ExamTaskNetwork.FTPLaptop.wlan[0].radio 	lossRate:timeavg 	0.0014148193056578
attr interpolationmode  backward-sample-hold
attr title  "packet loss rate, timeavg"
statistic ExamTaskNetwork.FTPLaptop.wlan[0].radio 	channelNo:histogram
field count 1
field mean 0
field stddev -nan
field sum 0
field sqrsum 0
field min 0
field max 0
attr interpolationmode  sample-hold
attr title  "channel no, histogram"
bin	-INF	0
bin	-0.5	0
bin	-0.46666666666667	0
bin	-0.43333333333333	0
bin	-0.4	0
bin	-0.36666666666667	0
bin	-0.33333333333333	0
bin	-0.3	0
bin	-0.26666666666667	0
bin	-0.23333333333333	0
bin	-0.2	0
bin	-0.16666666666667	0
bin	-0.13333333333333	0
bin	-0.1	0
bin	-0.066666666666667	0
bin	-0.033333333333333	0
bin	0	1
bin	0.033333333333333	0
bin	0.066666666666667	0
bin	0.1	0
bin	0.13333333333333	0
bin	0.16666666666667	0
bin	0.2	0
bin	0.23333333333333	0
bin	0.26666666666667	0
bin	0.3	0
bin	0.33333333333333	0
bin	0.36666666666667	0
bin	0.4	0
bin	0.43333333333333	0
bin	0.46666666666667	0
bin	0.5	0
scalar ExamTaskNetwork.FTPLaptop.wlan[0].radio 	radioState:count 	6670347
attr interpolationmode  sample-hold
attr title  "radio state (enum), count"
scalar ExamTaskNetwork.FTPLaptop.wlan[0].radio 	bitrate:min 	54000000
attr interpolationmode  sample-hold
attr title  "tx bitrate, min"
attr unit  bps
scalar ExamTaskNetwork.FTPLaptop.wlan[0].radio 	bitrate:max 	54000000
attr interpolationmode  sample-hold
attr title  "tx bitrate, max"
attr unit  bps
scalar ExamTaskNetwork.FTPLaptop.wlan[0].radio 	bitrate:timeavg 	54000000
attr interpolationmode  sample-hold
attr title  "tx bitrate, timeavg"
attr unit  bps
scalar ExamTaskNetwork.FTPLaptop.tcpApp[0] 	bytesRcvd 	0
scalar ExamTaskNetwork.FTPLaptop.tcpApp[0] 	bytesSent 	1778384896
scalar ExamTaskNetwork.FTPLaptop.tcpApp[0] 	sentPk:count 	1
attr interpolationmode  none
attr source  sentPk
attr title  "packets sent, count"
scalar ExamTaskNetwork.FTPLaptop.tcpApp[0] 	sentPk:sum(packetBytes) 	1778384896
attr interpolationmode  none
attr source  sentPk
attr title  "packets sent, sum(packetBytes)"
scalar ExamTaskNetwork.FTPLaptop.tcpApp[0] 	rcvdPk:count 	0
attr interpolationmode  none
attr source  rcvdPk
attr title  "packets received, count"
scalar ExamTaskNetwork.FTPLaptop.tcpApp[0] 	rcvdPk:sum(packetBytes) 	0
attr interpolationmode  none
attr source  rcvdPk
attr title  "packets received, sum(packetBytes)"
statistic ExamTaskNetwork.FTPLaptop.tcpApp[0] 	endToEndDelay:histogram
field count 0
field mean -nan
field stddev -nan
field sum 0
field sqrsum 0
field min -nan
field max -nan
attr interpolationmode  none
attr source  messageAge(rcvdPk)
attr title  "end-to-end delay, histogram"
attr unit  s
bin	-INF	0
bin	-0.5	0
bin	-0.46666666666667	0
bin	-0.43333333333333	0
bin	-0.4	0
bin	-0.36666666666667	0
bin	-0.33333333333333	0
bin	-0.3	0
bin	-0.26666666666667	0
bin	-0.23333333333333	0
bin	-0.2	0
bin	-0.16666666666667	0
bin	-0.13333333333333	0
bin	-0.1	0
bin	-0.066666666666667	0
bin	-0.033333333333333	0
bin	0	0
bin	0.033333333333333	0
bin	0.066666666666667	0
bin	0.1	0
bin	0.13333333333333	0
bin	0.16666666666667	0
bin	0.2	0
bin	0.23333333333333	0
bin	0.26666666666667	0
bin	0.3	0
bin	0.33333333333333	0
bin	0.36666666666667	0
bin	0.4	0
bin	0.43333333333333	0
bin	0.46666666666667	0
bin	0.5	0
scalar ExamTaskNetwork.BrowsingLaptop[0].networkLayer.arp 	initiatedARPResolution:count 	8
attr title  "ARP initiated resolutions, count"
scalar ExamTaskNetwork.BrowsingLaptop[0].networkLayer.arp 	sentReply:count 	1
attr title  "ARP replies sent, count"
scalar ExamTaskNetwork.BrowsingLaptop[0].networkLayer.arp 	sentReq:count 	9
attr title  "ARP request sent, count"
scalar ExamTaskNetwork.BrowsingLaptop[0].networkLayer.arp 	failedARPResolution:count 	0
attr title  "ARP failed resolutions, count"
scalar ExamTaskNetwork.BrowsingLaptop[0].networkLayer.arp 	completedARPResolution:count 	15
attr title  "ARP completed resolutions, count"
scalar ExamTaskNetwork.BrowsingLaptop[0].lo0.lo 	rcvdPkFromHL:count 	0
attr interpolationmode  none
attr source  packetReceivedFromUpper
attr title  "packets received from higher layer, count"
scalar ExamTaskNetwork.BrowsingLaptop[0].lo0.lo 	rcvdPkFromHL:sum(packetBytes) 	0
attr interpolationmode  none
attr source  packetReceivedFromUpper
attr title  "packets received from higher layer, sum(packetBytes)"
scalar ExamTaskNetwork.BrowsingLaptop[0].lo0.lo 	passedUpPk:count 	0
attr interpolationmode  none
attr source  packetSentToUpper
attr title  "packets passed to higher layer, count"
scalar ExamTaskNetwork.BrowsingLaptop[0].lo0.lo 	passedUpPk:sum(packetBytes) 	0
attr interpolationmode  none
attr source  packetSentToUpper
attr title  "packets passed to higher layer, sum(packetBytes)"
scalar ExamTaskNetwork.BrowsingLaptop[0].lo0.lo 	droppedPkBitError:count 	0
attr interpolationmode  none
attr source  dropPkBitError
attr title  "packets dropped/bit error, count"
scalar ExamTaskNetwork.BrowsingLaptop[0].lo0.lo 	droppedPkBitError:sum(packetBytes) 	0
attr interpolationmode  none
attr source  dropPkBitError
attr title  "packets dropped/bit error, sum(packetBytes)"
scalar ExamTaskNetwork.BrowsingLaptop[0].wlan[0].agent 	dropConfirm:count 	0
attr title  "dropped confirms, count"
scalar ExamTaskNetwork.BrowsingLaptop[0].wlan[0].agent 	acceptConfirm:count 	48
attr title  "accepted confirms, count"
scalar ExamTaskNetwork.BrowsingLaptop[0].wlan[0].agent 	sentRequest:count 	48
attr title  "sent requests, count"
scalar ExamTaskNetwork.BrowsingLaptop[0].wlan[0].mgmt 	dropPkByQueue:count 	0
attr interpolationmode  none
attr source  dropPkByQueue
attr title  "packets dropped by queue, count"
scalar ExamTaskNetwork.BrowsingLaptop[0].wlan[0].mgmt 	dropPkByQueue:sum(packetBytes) 	0
attr interpolationmode  none
attr source  dropPkByQueue
attr title  "packets dropped by queue, sum(packetBytes)"
scalar ExamTaskNetwork.BrowsingLaptop[0].wlan[0].mgmt 	dataQueueLen:max 	1
attr interpolationmode  sample-hold
attr title  "data queue length, max"
scalar ExamTaskNetwork.BrowsingLaptop[0].wlan[0].mgmt 	dataQueueLen:timeavg 	9.1668426321656e-07
attr interpolationmode  sample-hold
attr title  "data queue length, timeavg"
scalar ExamTaskNetwork.BrowsingLaptop[0].wlan[0].mac 	"number of received packets" 	38951
scalar ExamTaskNetwork.BrowsingLaptop[0].wlan[0].mac 	"number of collisions" 	45719
scalar ExamTaskNetwork.BrowsingLaptop[0].wlan[0].mac 	"number of internal collisions" 	0
scalar ExamTaskNetwork.BrowsingLaptop[0].wlan[0].mac 	"number of retry for AC 0" 	99
scalar ExamTaskNetwork.BrowsingLaptop[0].wlan[0].mac 	"sent and received bits" 	14660592
scalar ExamTaskNetwork.BrowsingLaptop[0].wlan[0].mac 	"sent packet within AC 0" 	18850
scalar ExamTaskNetwork.BrowsingLaptop[0].wlan[0].mac 	"sent in TXOP " 	0
scalar ExamTaskNetwork.BrowsingLaptop[0].wlan[0].mac 	"sentWithoutRetry AC 0" 	18781
scalar ExamTaskNetwork.BrowsingLaptop[0].wlan[0].mac 	"numGivenUp AC 0" 	0
scalar ExamTaskNetwork.BrowsingLaptop[0].wlan[0].mac 	"numDropped AC 0" 	0
scalar ExamTaskNetwork.BrowsingLaptop[0].wlan[0].mac 	rcvdPkFromHL:count 	18866
attr interpolationmode  none
attr source  packetReceivedFromUpper
attr title  "packets received from higher layer, count"
scalar ExamTaskNetwork.BrowsingLaptop[0].wlan[0].mac 	rcvdPkFromHL:sum(packetBytes) 	1832574
attr interpolationmode  none
attr source  packetReceivedFromUpper
attr title  "packets received from higher layer, sum(packetBytes)"
scalar ExamTaskNetwork.BrowsingLaptop[0].wlan[0].mac 	passedUpPk:count 	48278
attr interpolationmode  none
attr source  packetSentToUpper
attr title  "packets passed to higher layer, count"
scalar ExamTaskNetwork.BrowsingLaptop[0].wlan[0].mac 	passedUpPk:sum(packetBytes) 	33112893
attr interpolationmode  none
attr source  packetSentToUpper
attr title  "packets passed to higher layer, sum(packetBytes)"
scalar ExamTaskNetwork.BrowsingLaptop[0].wlan[0].mac 	rcvdPkFromLL:count 	3254971
attr interpolationmode  none
attr source  packetReceivedFromLower
attr title  "packets received from lower layer, count"
scalar ExamTaskNetwork.BrowsingLaptop[0].wlan[0].mac 	rcvdPkFromLL:sum(packetBytes) 	1329707746
attr interpolationmode  none
attr source  packetReceivedFromLower
attr title  "packets received from lower layer, sum(packetBytes)"
scalar ExamTaskNetwork.BrowsingLaptop[0].wlan[0].mac 	sentDownPk:count 	57916
attr interpolationmode  none
attr source  packetSentToLower
attr title  "packets sent to lower layer, count"
scalar ExamTaskNetwork.BrowsingLaptop[0].wlan[0].mac 	sentDownPk:sum(packetBytes) 	2431944
attr interpolationmode  none
attr source  packetSentToLower
attr title  "packets sent to lower layer, sum(packetBytes)"
scalar ExamTaskNetwork.BrowsingLaptop[0].wlan[0].radio 	lossRate:min 	0
attr interpolationmode  backward-sample-hold
attr title  "packet loss rate, min"
scalar ExamTaskNetwork.BrowsingLaptop[0].wlan[0].radio 	lossRate:max 	0.16
attr interpolationmode  backward-sample-hold
attr title  "packet loss rate, max"
scalar ExamTaskNetwork.BrowsingLaptop[0].wlan[0].radio 	lossRate:timeavg 	0.012835832726603
attr interpolationmode  backward-sample-hold
attr title  "packet loss rate, timeavg"
statistic ExamTaskNetwork.BrowsingLaptop[0].wlan[0].radio 	channelNo:histogram
field count 1
field mean 0
field stddev -nan
field sum 0
field sqrsum 0
field min 0
field max 0
attr interpolationmode  sample-hold
attr title  "channel no, histogram"
bin	-INF	0
bin	-0.5	0
bin	-0.46666666666667	0
bin	-0.43333333333333	0
bin	-0.4	0
bin	-0.36666666666667	0
bin	-0.33333333333333	0
bin	-0.3	0
bin	-0.26666666666667	0
bin	-0.23333333333333	0
bin	-0.2	0
bin	-0.16666666666667	0
bin	-0.13333333333333	0
bin	-0.1	0
bin	-0.066666666666667	0
bin	-0.033333333333333	0
bin	0	1
bin	0.033333333333333	0
bin	0.066666666666667	0
bin	0.1	0
bin	0.13333333333333	0
bin	0.16666666666667	0
bin	0.2	0
bin	0.23333333333333	0
bin	0.26666666666667	0
bin	0.3	0
bin	0.33333333333333	0
bin	0.36666666666667	0
bin	0.4	0
bin	0.43333333333333	0
bin	0.46666666666667	0
bin	0.5	0
scalar ExamTaskNetwork.BrowsingLaptop[0].wlan[0].radio 	radioState:count 	6625890
attr interpolationmode  sample-hold
attr title  "radio state (enum), count"
scalar ExamTaskNetwork.BrowsingLaptop[0].wlan[0].radio 	bitrate:min 	54000000
attr interpolationmode  sample-hold
attr title  "tx bitrate, min"
attr unit  bps
scalar ExamTaskNetwork.BrowsingLaptop[0].wlan[0].radio 	bitrate:max 	54000000
attr interpolationmode  sample-hold
attr title  "tx bitrate, max"
attr unit  bps
scalar ExamTaskNetwork.BrowsingLaptop[0].wlan[0].radio 	bitrate:timeavg 	54000000
attr interpolationmode  sample-hold
attr title  "tx bitrate, timeavg"
attr unit  bps
scalar ExamTaskNetwork.BrowsingLaptop[0].tcpApp[0] 	numActiveSessions:max 	1
attr interpolationmode  sample-hold
attr source  sum(connect)
attr title  "number of active sessions, max"
scalar ExamTaskNetwork.BrowsingLaptop[0].tcpApp[0] 	numActiveSessions:timeavg 	0.35387543051103
attr interpolationmode  sample-hold
attr source  sum(connect)
attr title  "number of active sessions, timeavg"
scalar ExamTaskNetwork.BrowsingLaptop[0].tcpApp[0] 	numSessions:last 	36
attr source  sum(connect+1)/2
attr title  "total number of sessions, last"
scalar ExamTaskNetwork.BrowsingLaptop[0].tcpApp[0] 	sentPk:count 	35
attr interpolationmode  none
attr source  sentPk
attr title  "packets sent, count"
scalar ExamTaskNetwork.BrowsingLaptop[0].tcpApp[0] 	sentPk:sum(packetBytes) 	286720
attr interpolationmode  none
attr source  sentPk
attr title  "packets sent, sum(packetBytes)"
scalar ExamTaskNetwork.BrowsingLaptop[0].tcpApp[0] 	rcvdPk:count 	35
attr interpolationmode  none
attr source  rcvdPk
attr title  "packets received, count"
scalar ExamTaskNetwork.BrowsingLaptop[0].tcpApp[0] 	rcvdPk:sum(packetBytes) 	23871192
attr interpolationmode  none
attr source  rcvdPk
attr title  "packets received, sum(packetBytes)"
statistic ExamTaskNetwork.BrowsingLaptop[0].tcpApp[0] 	endToEndDelay:histogram
field count 35
field mean 9.6923691542248
field stddev 10.129447500671
field sum 339.23292039787
field sqrsum 6776.5647205026
field min 1.911704763371
field max 53.753130208802
attr interpolationmode  none
attr source  messageAge(rcvdPk)
attr title  "end-to-end delay, histogram"
attr unit  s
bin	-INF	0
bin	-24.009007959345	0
bin	-20.552912929649	0
bin	-17.096817899954	0
bin	-13.640722870258	0
bin	-10.184627840563	0
bin	-6.7285328108675	0
bin	-3.2724377811721	0
bin	0.1836572485233	6
bin	3.6397522782187	15
bin	7.0958473079141	4
bin	10.551942337609	4
bin	14.008037367305	2
bin	17.464132397	1
bin	20.920227426696	1
bin	24.376322456391	0
bin	27.832417486086	0
bin	31.288512515782	1
bin	34.744607545477	0
bin	38.200702575173	0
bin	41.656797604868	0
bin	45.112892634563	0
bin	48.568987664259	0
bin	52.025082693954	1
bin	55.48117772365	0
bin	58.937272753345	0
bin	62.39336778304	0
bin	65.849462812736	0
bin	69.305557842431	0
bin	72.761652872127	0
bin	76.217747901822	0
bin	79.673842931517	0
scalar ExamTaskNetwork.BrowsingLaptop[1].networkLayer.arp 	initiatedARPResolution:count 	8
attr title  "ARP initiated resolutions, count"
scalar ExamTaskNetwork.BrowsingLaptop[1].networkLayer.arp 	sentReply:count 	1
attr title  "ARP replies sent, count"
scalar ExamTaskNetwork.BrowsingLaptop[1].networkLayer.arp 	sentReq:count 	8
attr title  "ARP request sent, count"
scalar ExamTaskNetwork.BrowsingLaptop[1].networkLayer.arp 	failedARPResolution:count 	0
attr title  "ARP failed resolutions, count"
scalar ExamTaskNetwork.BrowsingLaptop[1].networkLayer.arp 	completedARPResolution:count 	38
attr title  "ARP completed resolutions, count"
scalar ExamTaskNetwork.BrowsingLaptop[1].lo0.lo 	rcvdPkFromHL:count 	0
attr interpolationmode  none
attr source  packetReceivedFromUpper
attr title  "packets received from higher layer, count"
scalar ExamTaskNetwork.BrowsingLaptop[1].lo0.lo 	rcvdPkFromHL:sum(packetBytes) 	0
attr interpolationmode  none
attr source  packetReceivedFromUpper
attr title  "packets received from higher layer, sum(packetBytes)"
scalar ExamTaskNetwork.BrowsingLaptop[1].lo0.lo 	passedUpPk:count 	0
attr interpolationmode  none
attr source  packetSentToUpper
attr title  "packets passed to higher layer, count"
scalar ExamTaskNetwork.BrowsingLaptop[1].lo0.lo 	passedUpPk:sum(packetBytes) 	0
attr interpolationmode  none
attr source  packetSentToUpper
attr title  "packets passed to higher layer, sum(packetBytes)"
scalar ExamTaskNetwork.BrowsingLaptop[1].lo0.lo 	droppedPkBitError:count 	0
attr interpolationmode  none
attr source  dropPkBitError
attr title  "packets dropped/bit error, count"
scalar ExamTaskNetwork.BrowsingLaptop[1].lo0.lo 	droppedPkBitError:sum(packetBytes) 	0
attr interpolationmode  none
attr source  dropPkBitError
attr title  "packets dropped/bit error, sum(packetBytes)"
scalar ExamTaskNetwork.BrowsingLaptop[1].wlan[0].agent 	dropConfirm:count 	0
attr title  "dropped confirms, count"
scalar ExamTaskNetwork.BrowsingLaptop[1].wlan[0].agent 	acceptConfirm:count 	48
attr title  "accepted confirms, count"
scalar ExamTaskNetwork.BrowsingLaptop[1].wlan[0].agent 	sentRequest:count 	48
attr title  "sent requests, count"
scalar ExamTaskNetwork.BrowsingLaptop[1].wlan[0].mgmt 	dropPkByQueue:count 	430
attr interpolationmode  none
attr source  dropPkByQueue
attr title  "packets dropped by queue, count"
scalar ExamTaskNetwork.BrowsingLaptop[1].wlan[0].mgmt 	dropPkByQueue:sum(packetBytes) 	42100
attr interpolationmode  none
attr source  dropPkByQueue
attr title  "packets dropped by queue, sum(packetBytes)"
scalar ExamTaskNetwork.BrowsingLaptop[1].wlan[0].mgmt 	dataQueueLen:max 	50
attr interpolationmode  sample-hold
attr title  "data queue length, max"
scalar ExamTaskNetwork.BrowsingLaptop[1].wlan[0].mgmt 	dataQueueLen:timeavg 	0.024610482679251
attr interpolationmode  sample-hold
attr title  "data queue length, timeavg"
scalar ExamTaskNetwork.BrowsingLaptop[1].wlan[0].mac 	"number of received packets" 	41539
scalar ExamTaskNetwork.BrowsingLaptop[1].wlan[0].mac 	"number of collisions" 	45498
scalar ExamTaskNetwork.BrowsingLaptop[1].wlan[0].mac 	"number of internal collisions" 	0
scalar ExamTaskNetwork.BrowsingLaptop[1].wlan[0].mac 	"number of retry for AC 0" 	376
scalar ExamTaskNetwork.BrowsingLaptop[1].wlan[0].mac 	"sent and received bits" 	16849264
scalar ExamTaskNetwork.BrowsingLaptop[1].wlan[0].mac 	"sent packet within AC 0" 	21365
scalar ExamTaskNetwork.BrowsingLaptop[1].wlan[0].mac 	"sent in TXOP " 	0
scalar ExamTaskNetwork.BrowsingLaptop[1].wlan[0].mac 	"sentWithoutRetry AC 0" 	21058
scalar ExamTaskNetwork.BrowsingLaptop[1].wlan[0].mac 	"numGivenUp AC 0" 	0
scalar ExamTaskNetwork.BrowsingLaptop[1].wlan[0].mac 	"numDropped AC 0" 	0
scalar ExamTaskNetwork.BrowsingLaptop[1].wlan[0].mac 	rcvdPkFromHL:count 	21381
attr interpolationmode  none
attr source  packetReceivedFromUpper
attr title  "packets received from higher layer, count"
scalar ExamTaskNetwork.BrowsingLaptop[1].wlan[0].mac 	rcvdPkFromHL:sum(packetBytes) 	2106158
attr interpolationmode  none
attr source  packetReceivedFromUpper
attr title  "packets received from higher layer, sum(packetBytes)"
scalar ExamTaskNetwork.BrowsingLaptop[1].wlan[0].mac 	passedUpPk:count 	50864
attr interpolationmode  none
attr source  packetSentToUpper
attr title  "packets passed to higher layer, count"
scalar ExamTaskNetwork.BrowsingLaptop[1].wlan[0].mac 	passedUpPk:sum(packetBytes) 	34912718
attr interpolationmode  none
attr source  packetSentToUpper
attr title  "packets passed to higher layer, sum(packetBytes)"
scalar ExamTaskNetwork.BrowsingLaptop[1].wlan[0].mac 	rcvdPkFromLL:count 	3249591
attr interpolationmode  none
attr source  packetReceivedFromLower
attr title  "packets received from lower layer, count"
scalar ExamTaskNetwork.BrowsingLaptop[1].wlan[0].mac 	rcvdPkFromLL:sum(packetBytes) 	1329305136
attr interpolationmode  none
attr source  packetReceivedFromLower
attr title  "packets received from lower layer, sum(packetBytes)"
scalar ExamTaskNetwork.BrowsingLaptop[1].wlan[0].mac 	sentDownPk:count 	63296
attr interpolationmode  none
attr source  packetSentToLower
attr title  "packets sent to lower layer, count"
scalar ExamTaskNetwork.BrowsingLaptop[1].wlan[0].mac 	sentDownPk:sum(packetBytes) 	2777616
attr interpolationmode  none
attr source  packetSentToLower
attr title  "packets sent to lower layer, sum(packetBytes)"
scalar ExamTaskNetwork.BrowsingLaptop[1].wlan[0].radio 	lossRate:min 	0
attr interpolationmode  backward-sample-hold
attr title  "packet loss rate, min"
scalar ExamTaskNetwork.BrowsingLaptop[1].wlan[0].radio 	lossRate:max 	0.14
attr interpolationmode  backward-sample-hold
attr title  "packet loss rate, max"
scalar ExamTaskNetwork.BrowsingLaptop[1].wlan[0].radio 	lossRate:timeavg 	0.012791865188889
attr interpolationmode  backward-sample-hold
attr title  "packet loss rate, timeavg"
statistic ExamTaskNetwork.BrowsingLaptop[1].wlan[0].radio 	channelNo:histogram
field count 1
field mean 0
field stddev -nan
field sum 0
field sqrsum 0
field min 0
field max 0
attr interpolationmode  sample-hold
attr title  "channel no, histogram"
bin	-INF	0
bin	-0.5	0
bin	-0.46666666666667	0
bin	-0.43333333333333	0
bin	-0.4	0
bin	-0.36666666666667	0
bin	-0.33333333333333	0
bin	-0.3	0
bin	-0.26666666666667	0
bin	-0.23333333333333	0
bin	-0.2	0
bin	-0.16666666666667	0
bin	-0.13333333333333	0
bin	-0.1	0
bin	-0.066666666666667	0
bin	-0.033333333333333	0
bin	0	1
bin	0.033333333333333	0
bin	0.066666666666667	0
bin	0.1	0
bin	0.13333333333333	0
bin	0.16666666666667	0
bin	0.2	0
bin	0.23333333333333	0
bin	0.26666666666667	0
bin	0.3	0
bin	0.33333333333333	0
bin	0.36666666666667	0
bin	0.4	0
bin	0.43333333333333	0
bin	0.46666666666667	0
bin	0.5	0
scalar ExamTaskNetwork.BrowsingLaptop[1].wlan[0].radio 	radioState:count 	6626236
attr interpolationmode  sample-hold
attr title  "radio state (enum), count"
scalar ExamTaskNetwork.BrowsingLaptop[1].wlan[0].radio 	bitrate:min 	54000000
attr interpolationmode  sample-hold
attr title  "tx bitrate, min"
attr unit  bps
scalar ExamTaskNetwork.BrowsingLaptop[1].wlan[0].radio 	bitrate:max 	54000000
attr interpolationmode  sample-hold
attr title  "tx bitrate, max"
attr unit  bps
scalar ExamTaskNetwork.BrowsingLaptop[1].wlan[0].radio 	bitrate:timeavg 	54000000
attr interpolationmode  sample-hold
attr title  "tx bitrate, timeavg"
attr unit  bps
scalar ExamTaskNetwork.BrowsingLaptop[1].tcpApp[0] 	numActiveSessions:max 	1
attr interpolationmode  sample-hold
attr source  sum(connect)
attr title  "number of active sessions, max"
scalar ExamTaskNetwork.BrowsingLaptop[1].tcpApp[0] 	numActiveSessions:timeavg 	0.37501732969822
attr interpolationmode  sample-hold
attr source  sum(connect)
attr title  "number of active sessions, timeavg"
scalar ExamTaskNetwork.BrowsingLaptop[1].tcpApp[0] 	numSessions:last 	41
attr source  sum(connect+1)/2
attr title  "total number of sessions, last"
scalar ExamTaskNetwork.BrowsingLaptop[1].tcpApp[0] 	sentPk:count 	41
attr interpolationmode  none
attr source  sentPk
attr title  "packets sent, count"
scalar ExamTaskNetwork.BrowsingLaptop[1].tcpApp[0] 	sentPk:sum(packetBytes) 	335872
attr interpolationmode  none
attr source  sentPk
attr title  "packets sent, sum(packetBytes)"
scalar ExamTaskNetwork.BrowsingLaptop[1].tcpApp[0] 	rcvdPk:count 	41
attr interpolationmode  none
attr source  rcvdPk
attr title  "packets received, count"
scalar ExamTaskNetwork.BrowsingLaptop[1].tcpApp[0] 	rcvdPk:sum(packetBytes) 	27399108
attr interpolationmode  none
attr source  rcvdPk
attr title  "packets received, sum(packetBytes)"
statistic ExamTaskNetwork.BrowsingLaptop[1].tcpApp[0] 	endToEndDelay:histogram
field count 41
field mean 8.8785417770081
field stddev 8.1683410367022
field sum 364.02021285733
field sqrsum 5900.8404792041
field min 0.529401230861
field max 41.768632776816
attr interpolationmode  none
attr source  messageAge(rcvdPk)
attr title  "end-to-end delay, histogram"
attr unit  s
bin	-INF	0
bin	-20.090214542117	0
bin	-17.340932439053	0
bin	-14.591650335989	0
bin	-11.842368232926	0
bin	-9.0930861298618	0
bin	-6.3438040267982	0
bin	-3.5945219237345	0
bin	-0.84523982067084	5
bin	1.9040422823928	10
bin	4.6533243854565	8
bin	7.4026064885202	8
bin	10.151888591584	1
bin	12.901170694647	3
bin	15.650452797711	1
bin	18.399734900775	2
bin	21.149017003838	1
bin	23.898299106902	1
bin	26.647581209966	0
bin	29.396863313029	0
bin	32.146145416093	0
bin	34.895427519157	0
bin	37.64470962222	0
bin	40.393991725284	1
bin	43.143273828348	0
bin	45.892555931411	0
bin	48.641838034475	0
bin	51.391120137539	0
bin	54.140402240602	0
bin	56.889684343666	0
bin	59.63896644673	0
bin	62.388248549794	0
scalar ExamTaskNetwork.BrowsingLaptop[2].networkLayer.arp 	initiatedARPResolution:count 	8
attr title  "ARP initiated resolutions, count"
scalar ExamTaskNetwork.BrowsingLaptop[2].networkLayer.arp 	sentReply:count 	2
attr title  "ARP replies sent, count"
scalar ExamTaskNetwork.BrowsingLaptop[2].networkLayer.arp 	sentReq:count 	8
attr title  "ARP request sent, count"
scalar ExamTaskNetwork.BrowsingLaptop[2].networkLayer.arp 	failedARPResolution:count 	0
attr title  "ARP failed resolutions, count"
scalar ExamTaskNetwork.BrowsingLaptop[2].networkLayer.arp 	completedARPResolution:count 	17
attr title  "ARP completed resolutions, count"
scalar ExamTaskNetwork.BrowsingLaptop[2].lo0.lo 	rcvdPkFromHL:count 	0
attr interpolationmode  none
attr source  packetReceivedFromUpper
attr title  "packets received from higher layer, count"
scalar ExamTaskNetwork.BrowsingLaptop[2].lo0.lo 	rcvdPkFromHL:sum(packetBytes) 	0
attr interpolationmode  none
attr source  packetReceivedFromUpper
attr title  "packets received from higher layer, sum(packetBytes)"
scalar ExamTaskNetwork.BrowsingLaptop[2].lo0.lo 	passedUpPk:count 	0
attr interpolationmode  none
attr source  packetSentToUpper
attr title  "packets passed to higher layer, count"
scalar ExamTaskNetwork.BrowsingLaptop[2].lo0.lo 	passedUpPk:sum(packetBytes) 	0
attr interpolationmode  none
attr source  packetSentToUpper
attr title  "packets passed to higher layer, sum(packetBytes)"
scalar ExamTaskNetwork.BrowsingLaptop[2].lo0.lo 	droppedPkBitError:count 	0
attr interpolationmode  none
attr source  dropPkBitError
attr title  "packets dropped/bit error, count"
scalar ExamTaskNetwork.BrowsingLaptop[2].lo0.lo 	droppedPkBitError:sum(packetBytes) 	0
attr interpolationmode  none
attr source  dropPkBitError
attr title  "packets dropped/bit error, sum(packetBytes)"
scalar ExamTaskNetwork.BrowsingLaptop[2].wlan[0].agent 	dropConfirm:count 	0
attr title  "dropped confirms, count"
scalar ExamTaskNetwork.BrowsingLaptop[2].wlan[0].agent 	acceptConfirm:count 	48
attr title  "accepted confirms, count"
scalar ExamTaskNetwork.BrowsingLaptop[2].wlan[0].agent 	sentRequest:count 	48
attr title  "sent requests, count"
scalar ExamTaskNetwork.BrowsingLaptop[2].wlan[0].mgmt 	dropPkByQueue:count 	0
attr interpolationmode  none
attr source  dropPkByQueue
attr title  "packets dropped by queue, count"
scalar ExamTaskNetwork.BrowsingLaptop[2].wlan[0].mgmt 	dropPkByQueue:sum(packetBytes) 	0
attr interpolationmode  none
attr source  dropPkByQueue
attr title  "packets dropped by queue, sum(packetBytes)"
scalar ExamTaskNetwork.BrowsingLaptop[2].wlan[0].mgmt 	dataQueueLen:max 	10
attr interpolationmode  sample-hold
attr title  "data queue length, max"
scalar ExamTaskNetwork.BrowsingLaptop[2].wlan[0].mgmt 	dataQueueLen:timeavg 	7.8180843363949e-05
attr interpolationmode  sample-hold
attr title  "data queue length, timeavg"
scalar ExamTaskNetwork.BrowsingLaptop[2].wlan[0].mac 	"number of received packets" 	32319
scalar ExamTaskNetwork.BrowsingLaptop[2].wlan[0].mac 	"number of collisions" 	45698
scalar ExamTaskNetwork.BrowsingLaptop[2].wlan[0].mac 	"number of internal collisions" 	0
scalar ExamTaskNetwork.BrowsingLaptop[2].wlan[0].mac 	"number of retry for AC 0" 	116
scalar ExamTaskNetwork.BrowsingLaptop[2].wlan[0].mac 	"sent and received bits" 	12729536
scalar ExamTaskNetwork.BrowsingLaptop[2].wlan[0].mac 	"sent packet within AC 0" 	15796
scalar ExamTaskNetwork.BrowsingLaptop[2].wlan[0].mac 	"sent in TXOP " 	0
scalar ExamTaskNetwork.BrowsingLaptop[2].wlan[0].mac 	"sentWithoutRetry AC 0" 	15721
scalar ExamTaskNetwork.BrowsingLaptop[2].wlan[0].mac 	"numGivenUp AC 0" 	0
scalar ExamTaskNetwork.BrowsingLaptop[2].wlan[0].mac 	"numDropped AC 0" 	0
scalar ExamTaskNetwork.BrowsingLaptop[2].wlan[0].mac 	rcvdPkFromHL:count 	15812
attr interpolationmode  none
attr source  packetReceivedFromUpper
attr title  "packets received from higher layer, count"
scalar ExamTaskNetwork.BrowsingLaptop[2].wlan[0].mac 	rcvdPkFromHL:sum(packetBytes) 	1591192
attr interpolationmode  none
attr source  packetReceivedFromUpper
attr title  "packets received from higher layer, sum(packetBytes)"
scalar ExamTaskNetwork.BrowsingLaptop[2].wlan[0].mac 	passedUpPk:count 	41642
attr interpolationmode  none
attr source  packetSentToUpper
attr title  "packets passed to higher layer, count"
scalar ExamTaskNetwork.BrowsingLaptop[2].wlan[0].mac 	passedUpPk:sum(packetBytes) 	27374733
attr interpolationmode  none
attr source  packetSentToUpper
attr title  "packets passed to higher layer, sum(packetBytes)"
scalar ExamTaskNetwork.BrowsingLaptop[2].wlan[0].mac 	rcvdPkFromLL:count 	3264640
attr interpolationmode  none
attr source  packetReceivedFromLower
attr title  "packets received from lower layer, count"
scalar ExamTaskNetwork.BrowsingLaptop[2].wlan[0].mac 	rcvdPkFromLL:sum(packetBytes) 	1330039762
attr interpolationmode  none
attr source  packetReceivedFromLower
attr title  "packets received from lower layer, sum(packetBytes)"
scalar ExamTaskNetwork.BrowsingLaptop[2].wlan[0].mac 	sentDownPk:count 	48247
attr interpolationmode  none
attr source  packetSentToLower
attr title  "packets sent to lower layer, count"
scalar ExamTaskNetwork.BrowsingLaptop[2].wlan[0].mac 	sentDownPk:sum(packetBytes) 	2108452
attr interpolationmode  none
attr source  packetSentToLower
attr title  "packets sent to lower layer, sum(packetBytes)"
scalar ExamTaskNetwork.BrowsingLaptop[2].wlan[0].radio 	lossRate:min 	0
attr interpolationmode  backward-sample-hold
attr title  "packet loss rate, min"
scalar ExamTaskNetwork.BrowsingLaptop[2].wlan[0].radio 	lossRate:max 	0.16
attr interpolationmode  backward-sample-hold
attr title  "packet loss rate, max"
scalar ExamTaskNetwork.BrowsingLaptop[2].wlan[0].radio 	lossRate:timeavg 	0.01279150596662
attr interpolationmode  backward-sample-hold
attr title  "packet loss rate, timeavg"
statistic ExamTaskNetwork.BrowsingLaptop[2].wlan[0].radio 	channelNo:histogram
field count 1
field mean 0
field stddev -nan
field sum 0
field sqrsum 0
field min 0
field max 0
attr interpolationmode  sample-hold
attr title  "channel no, histogram"
bin	-INF	0
bin	-0.5	0
bin	-0.46666666666667	0
bin	-0.43333333333333	0
bin	-0.4	0
bin	-0.36666666666667	0
bin	-0.33333333333333	0
bin	-0.3	0
bin	-0.26666666666667	0
bin	-0.23333333333333	0
bin	-0.2	0
bin	-0.16666666666667	0
bin	-0.13333333333333	0
bin	-0.1	0
bin	-0.066666666666667	0
bin	-0.033333333333333	0
bin	0	1
bin	0.033333333333333	0
bin	0.066666666666667	0
bin	0.1	0
bin	0.13333333333333	0
bin	0.16666666666667	0
bin	0.2	0
bin	0.23333333333333	0
bin	0.26666666666667	0
bin	0.3	0
bin	0.33333333333333	0
bin	0.36666666666667	0
bin	0.4	0
bin	0.43333333333333	0
bin	0.46666666666667	0
bin	0.5	0
scalar ExamTaskNetwork.BrowsingLaptop[2].wlan[0].radio 	radioState:count 	6625914
attr interpolationmode  sample-hold
attr title  "radio state (enum), count"
scalar ExamTaskNetwork.BrowsingLaptop[2].wlan[0].radio 	bitrate:min 	54000000
attr interpolationmode  sample-hold
attr title  "tx bitrate, min"
attr unit  bps
scalar ExamTaskNetwork.BrowsingLaptop[2].wlan[0].radio 	bitrate:max 	54000000
attr interpolationmode  sample-hold
attr title  "tx bitrate, max"
attr unit  bps
scalar ExamTaskNetwork.BrowsingLaptop[2].wlan[0].radio 	bitrate:timeavg 	54000000
attr interpolationmode  sample-hold
attr title  "tx bitrate, timeavg"
attr unit  bps
scalar ExamTaskNetwork.BrowsingLaptop[2].tcpApp[0] 	numActiveSessions:max 	1
attr interpolationmode  sample-hold
attr source  sum(connect)
attr title  "number of active sessions, max"
scalar ExamTaskNetwork.BrowsingLaptop[2].tcpApp[0] 	numActiveSessions:timeavg 	0.37759606300902
attr interpolationmode  sample-hold
attr source  sum(connect)
attr title  "number of active sessions, timeavg"
scalar ExamTaskNetwork.BrowsingLaptop[2].tcpApp[0] 	numSessions:last 	36
attr source  sum(connect+1)/2
attr title  "total number of sessions, last"
scalar ExamTaskNetwork.BrowsingLaptop[2].tcpApp[0] 	sentPk:count 	36
attr interpolationmode  none
attr source  sentPk
attr title  "packets sent, count"
scalar ExamTaskNetwork.BrowsingLaptop[2].tcpApp[0] 	sentPk:sum(packetBytes) 	294912
attr interpolationmode  none
attr source  sentPk
attr title  "packets sent, sum(packetBytes)"
scalar ExamTaskNetwork.BrowsingLaptop[2].tcpApp[0] 	rcvdPk:count 	36
attr interpolationmode  none
attr source  rcvdPk
attr title  "packets received, count"
scalar ExamTaskNetwork.BrowsingLaptop[2].tcpApp[0] 	rcvdPk:sum(packetBytes) 	21418236
attr interpolationmode  none
attr source  rcvdPk
attr title  "packets received, sum(packetBytes)"
statistic ExamTaskNetwork.BrowsingLaptop[2].tcpApp[0] 	endToEndDelay:histogram
field count 36
field mean 10.197824056866
field stddev 11.224488960446
field sum 367.12166604719
field sqrsum 8153.4624926243
field min 0.479459230404
field max 57.788329020655
attr interpolationmode  none
attr source  messageAge(rcvdPk)
attr title  "end-to-end delay, histogram"
attr unit  s
bin	-INF	0
bin	-28.174975664722	0
bin	-24.354384345371	0
bin	-20.533793026021	0
bin	-16.713201706671	0
bin	-12.892610387321	0
bin	-9.0720190679712	0
bin	-5.2514277486211	0
bin	-1.430836429271	7
bin	2.389754890079	8
bin	6.2103462094291	8
bin	10.030937528779	3
bin	13.851528848129	6
bin	17.672120167479	2
bin	21.492711486829	0
bin	25.313302806179	0
bin	29.133894125529	0
bin	32.95448544488	0
bin	36.77507676423	1
bin	40.59566808358	0
bin	44.41625940293	0
bin	48.23685072228	0
bin	52.05744204163	0
bin	55.87803336098	1
bin	59.69862468033	0
bin	63.51921599968	0
bin	67.33980731903	0
bin	71.16039863838	0
bin	74.98098995773	0
bin	78.80158127708	0
bin	82.62217259643	0
bin	86.442763915781	0
scalar ExamTaskNetwork.BrowsingLaptop[3].networkLayer.arp 	initiatedARPResolution:count 	8
attr title  "ARP initiated resolutions, count"
scalar ExamTaskNetwork.BrowsingLaptop[3].networkLayer.arp 	sentReply:count 	2
attr title  "ARP replies sent, count"
scalar ExamTaskNetwork.BrowsingLaptop[3].networkLayer.arp 	sentReq:count 	8
attr title  "ARP request sent, count"
scalar ExamTaskNetwork.BrowsingLaptop[3].networkLayer.arp 	failedARPResolution:count 	0
attr title  "ARP failed resolutions, count"
scalar ExamTaskNetwork.BrowsingLaptop[3].networkLayer.arp 	completedARPResolution:count 	30
attr title  "ARP completed resolutions, count"
scalar ExamTaskNetwork.BrowsingLaptop[3].lo0.lo 	rcvdPkFromHL:count 	0
attr interpolationmode  none
attr source  packetReceivedFromUpper
attr title  "packets received from higher layer, count"
scalar ExamTaskNetwork.BrowsingLaptop[3].lo0.lo 	rcvdPkFromHL:sum(packetBytes) 	0
attr interpolationmode  none
attr source  packetReceivedFromUpper
attr title  "packets received from higher layer, sum(packetBytes)"
scalar ExamTaskNetwork.BrowsingLaptop[3].lo0.lo 	passedUpPk:count 	0
attr interpolationmode  none
attr source  packetSentToUpper
attr title  "packets passed to higher layer, count"
scalar ExamTaskNetwork.BrowsingLaptop[3].lo0.lo 	passedUpPk:sum(packetBytes) 	0
attr interpolationmode  none
attr source  packetSentToUpper
attr title  "packets passed to higher layer, sum(packetBytes)"
scalar ExamTaskNetwork.BrowsingLaptop[3].lo0.lo 	droppedPkBitError:count 	0
attr interpolationmode  none
attr source  dropPkBitError
attr title  "packets dropped/bit error, count"
scalar ExamTaskNetwork.BrowsingLaptop[3].lo0.lo 	droppedPkBitError:sum(packetBytes) 	0
attr interpolationmode  none
attr source  dropPkBitError
attr title  "packets dropped/bit error, sum(packetBytes)"
scalar ExamTaskNetwork.BrowsingLaptop[3].wlan[0].agent 	dropConfirm:count 	0
attr title  "dropped confirms, count"
scalar ExamTaskNetwork.BrowsingLaptop[3].wlan[0].agent 	acceptConfirm:count 	48
attr title  "accepted confirms, count"
scalar ExamTaskNetwork.BrowsingLaptop[3].wlan[0].agent 	sentRequest:count 	48
attr title  "sent requests, count"
scalar ExamTaskNetwork.BrowsingLaptop[3].wlan[0].mgmt 	dropPkByQueue:count 	258
attr interpolationmode  none
attr source  dropPkByQueue
attr title  "packets dropped by queue, count"
scalar ExamTaskNetwork.BrowsingLaptop[3].wlan[0].mgmt 	dropPkByQueue:sum(packetBytes) 	25268
attr interpolationmode  none
attr source  dropPkByQueue
attr title  "packets dropped by queue, sum(packetBytes)"
scalar ExamTaskNetwork.BrowsingLaptop[3].wlan[0].mgmt 	dataQueueLen:max 	50
attr interpolationmode  sample-hold
attr title  "data queue length, max"
scalar ExamTaskNetwork.BrowsingLaptop[3].wlan[0].mgmt 	dataQueueLen:timeavg 	0.013725322369562
attr interpolationmode  sample-hold
attr title  "data queue length, timeavg"
scalar ExamTaskNetwork.BrowsingLaptop[3].wlan[0].mac 	"number of received packets" 	42456
scalar ExamTaskNetwork.BrowsingLaptop[3].wlan[0].mac 	"number of collisions" 	45604
scalar ExamTaskNetwork.BrowsingLaptop[3].wlan[0].mac 	"number of internal collisions" 	0
scalar ExamTaskNetwork.BrowsingLaptop[3].wlan[0].mac 	"number of retry for AC 0" 	241
scalar ExamTaskNetwork.BrowsingLaptop[3].wlan[0].mac 	"sent and received bits" 	16428240
scalar ExamTaskNetwork.BrowsingLaptop[3].wlan[0].mac 	"sent packet within AC 0" 	21594
scalar ExamTaskNetwork.BrowsingLaptop[3].wlan[0].mac 	"sent in TXOP " 	0
scalar ExamTaskNetwork.BrowsingLaptop[3].wlan[0].mac 	"sentWithoutRetry AC 0" 	21403
scalar ExamTaskNetwork.BrowsingLaptop[3].wlan[0].mac 	"numGivenUp AC 0" 	0
scalar ExamTaskNetwork.BrowsingLaptop[3].wlan[0].mac 	"numDropped AC 0" 	0
scalar ExamTaskNetwork.BrowsingLaptop[3].wlan[0].mac 	rcvdPkFromHL:count 	21610
attr interpolationmode  none
attr source  packetReceivedFromUpper
attr title  "packets received from higher layer, count"
scalar ExamTaskNetwork.BrowsingLaptop[3].wlan[0].mac 	rcvdPkFromHL:sum(packetBytes) 	2053530
attr interpolationmode  none
attr source  packetReceivedFromUpper
attr title  "packets received from higher layer, sum(packetBytes)"
scalar ExamTaskNetwork.BrowsingLaptop[3].wlan[0].mac 	passedUpPk:count 	51780
attr interpolationmode  none
attr source  packetSentToUpper
attr title  "packets passed to higher layer, count"
scalar ExamTaskNetwork.BrowsingLaptop[3].wlan[0].mac 	passedUpPk:sum(packetBytes) 	35470535
attr interpolationmode  none
attr source  packetSentToUpper
attr title  "packets passed to higher layer, sum(packetBytes)"
scalar ExamTaskNetwork.BrowsingLaptop[3].wlan[0].mac 	rcvdPkFromLL:count 	3248580
attr interpolationmode  none
attr source  packetReceivedFromLower
attr title  "packets received from lower layer, count"
scalar ExamTaskNetwork.BrowsingLaptop[3].wlan[0].mac 	rcvdPkFromLL:sum(packetBytes) 	1329432948
attr interpolationmode  none
attr source  packetReceivedFromLower
attr title  "packets received from lower layer, sum(packetBytes)"
scalar ExamTaskNetwork.BrowsingLaptop[3].wlan[0].mac 	sentDownPk:count 	64307
attr interpolationmode  none
attr source  packetSentToLower
attr title  "packets sent to lower layer, count"
scalar ExamTaskNetwork.BrowsingLaptop[3].wlan[0].mac 	sentDownPk:sum(packetBytes) 	2709434
attr interpolationmode  none
attr source  packetSentToLower
attr title  "packets sent to lower layer, sum(packetBytes)"
scalar ExamTaskNetwork.BrowsingLaptop[3].wlan[0].radio 	lossRate:min 	0
attr interpolationmode  backward-sample-hold
attr title  "packet loss rate, min"
scalar ExamTaskNetwork.BrowsingLaptop[3].wlan[0].radio 	lossRate:max 	0.14
attr interpolationmode  backward-sample-hold
attr title  "packet loss rate, max"
scalar ExamTaskNetwork.BrowsingLaptop[3].wlan[0].radio 	lossRate:timeavg 	0.012855834880079
attr interpolationmode  backward-sample-hold
attr title  "packet loss rate, timeavg"
statistic ExamTaskNetwork.BrowsingLaptop[3].wlan[0].radio 	channelNo:histogram
field count 1
field mean 0
field stddev -nan
field sum 0
field sqrsum 0
field min 0
field max 0
attr interpolationmode  sample-hold
attr title  "channel no, histogram"
bin	-INF	0
bin	-0.5	0
bin	-0.46666666666667	0
bin	-0.43333333333333	0
bin	-0.4	0
bin	-0.36666666666667	0
bin	-0.33333333333333	0
bin	-0.3	0
bin	-0.26666666666667	0
bin	-0.23333333333333	0
bin	-0.2	0
bin	-0.16666666666667	0
bin	-0.13333333333333	0
bin	-0.1	0
bin	-0.066666666666667	0
bin	-0.033333333333333	0
bin	0	1
bin	0.033333333333333	0
bin	0.066666666666667	0
bin	0.1	0
bin	0.13333333333333	0
bin	0.16666666666667	0
bin	0.2	0
bin	0.23333333333333	0
bin	0.26666666666667	0
bin	0.3	0
bin	0.33333333333333	0
bin	0.36666666666667	0
bin	0.4	0
bin	0.43333333333333	0
bin	0.46666666666667	0
bin	0.5	0
scalar ExamTaskNetwork.BrowsingLaptop[3].wlan[0].radio 	radioState:count 	6626067
attr interpolationmode  sample-hold
attr title  "radio state (enum), count"
scalar ExamTaskNetwork.BrowsingLaptop[3].wlan[0].radio 	bitrate:min 	54000000
attr interpolationmode  sample-hold
attr title  "tx bitrate, min"
attr unit  bps
scalar ExamTaskNetwork.BrowsingLaptop[3].wlan[0].radio 	bitrate:max 	54000000
attr interpolationmode  sample-hold
attr title  "tx bitrate, max"
attr unit  bps
scalar ExamTaskNetwork.BrowsingLaptop[3].wlan[0].radio 	bitrate:timeavg 	54000000
attr interpolationmode  sample-hold
attr title  "tx bitrate, timeavg"
attr unit  bps
scalar ExamTaskNetwork.BrowsingLaptop[3].tcpApp[0] 	numActiveSessions:max 	1
attr interpolationmode  sample-hold
attr source  sum(connect)
attr title  "number of active sessions, max"
scalar ExamTaskNetwork.BrowsingLaptop[3].tcpApp[0] 	numActiveSessions:timeavg 	0.34198789789942
attr interpolationmode  sample-hold
attr source  sum(connect)
attr title  "number of active sessions, timeavg"
scalar ExamTaskNetwork.BrowsingLaptop[3].tcpApp[0] 	numSessions:last 	33
attr source  sum(connect+1)/2
attr title  "total number of sessions, last"
scalar ExamTaskNetwork.BrowsingLaptop[3].tcpApp[0] 	sentPk:count 	33
attr interpolationmode  none
attr source  sentPk
attr title  "packets sent, count"
scalar ExamTaskNetwork.BrowsingLaptop[3].tcpApp[0] 	sentPk:sum(packetBytes) 	270336
attr interpolationmode  none
attr source  sentPk
attr title  "packets sent, sum(packetBytes)"
scalar ExamTaskNetwork.BrowsingLaptop[3].tcpApp[0] 	rcvdPk:count 	32
attr interpolationmode  none
attr source  rcvdPk
attr title  "packets received, count"
scalar ExamTaskNetwork.BrowsingLaptop[3].tcpApp[0] 	rcvdPk:sum(packetBytes) 	28477674
attr interpolationmode  none
attr source  rcvdPk
attr title  "packets received, sum(packetBytes)"
statistic ExamTaskNetwork.BrowsingLaptop[3].tcpApp[0] 	endToEndDelay:histogram
field count 32
field mean 10.020782395495
field stddev 10.947254704549
field sum 320.66503665585
field sqrsum 6928.428506726
field min 0.596791847312
field max 59.373814283972
attr interpolationmode  none
attr source  messageAge(rcvdPk)
attr title  "end-to-end delay, histogram"
attr unit  s
bin	-INF	0
bin	-28.791719371018	0
bin	-24.873251208574	0
bin	-20.95478304613	0
bin	-17.036314883686	0
bin	-13.117846721242	0
bin	-9.199378558798	0
bin	-5.280910396354	0
bin	-1.36244223391	6
bin	2.556025928534	7
bin	6.474494090978	6
bin	10.392962253422	7
bin	14.311430415866	3
bin	18.22989857831	0
bin	22.148366740754	2
bin	26.066834903198	0
bin	29.985303065642	0
bin	33.903771228086	0
bin	37.82223939053	0
bin	41.740707552974	0
bin	45.659175715418	0
bin	49.577643877862	0
bin	53.496112040306	0
bin	57.41458020275	1
bin	61.333048365194	0
bin	65.251516527638	0
bin	69.169984690082	0
bin	73.088452852526	0
bin	77.00692101497	0
bin	80.925389177414	0
bin	84.843857339858	0
bin	88.762325502302	0
scalar ExamTaskNetwork.BrowsingLaptop[4].networkLayer.arp 	initiatedARPResolution:count 	8
attr title  "ARP initiated resolutions, count"
scalar ExamTaskNetwork.BrowsingLaptop[4].networkLayer.arp 	sentReply:count 	2
attr title  "ARP replies sent, count"
scalar ExamTaskNetwork.BrowsingLaptop[4].networkLayer.arp 	sentReq:count 	8
attr title  "ARP request sent, count"
scalar ExamTaskNetwork.BrowsingLaptop[4].networkLayer.arp 	failedARPResolution:count 	0
attr title  "ARP failed resolutions, count"
scalar ExamTaskNetwork.BrowsingLaptop[4].networkLayer.arp 	completedARPResolution:count 	32
attr title  "ARP completed resolutions, count"
scalar ExamTaskNetwork.BrowsingLaptop[4].lo0.lo 	rcvdPkFromHL:count 	0
attr interpolationmode  none
attr source  packetReceivedFromUpper
attr title  "packets received from higher layer, count"
scalar ExamTaskNetwork.BrowsingLaptop[4].lo0.lo 	rcvdPkFromHL:sum(packetBytes) 	0
attr interpolationmode  none
attr source  packetReceivedFromUpper
attr title  "packets received from higher layer, sum(packetBytes)"
scalar ExamTaskNetwork.BrowsingLaptop[4].lo0.lo 	passedUpPk:count 	0
attr interpolationmode  none
attr source  packetSentToUpper
attr title  "packets passed to higher layer, count"
scalar ExamTaskNetwork.BrowsingLaptop[4].lo0.lo 	passedUpPk:sum(packetBytes) 	0
attr interpolationmode  none
attr source  packetSentToUpper
attr title  "packets passed to higher layer, sum(packetBytes)"
scalar ExamTaskNetwork.BrowsingLaptop[4].lo0.lo 	droppedPkBitError:count 	0
attr interpolationmode  none
attr source  dropPkBitError
attr title  "packets dropped/bit error, count"
scalar ExamTaskNetwork.BrowsingLaptop[4].lo0.lo 	droppedPkBitError:sum(packetBytes) 	0
attr interpolationmode  none
attr source  dropPkBitError
attr title  "packets dropped/bit error, sum(packetBytes)"
scalar ExamTaskNetwork.BrowsingLaptop[4].wlan[0].agent 	dropConfirm:count 	0
attr title  "dropped confirms, count"
scalar ExamTaskNetwork.BrowsingLaptop[4].wlan[0].agent 	acceptConfirm:count 	48
attr title  "accepted confirms, count"
scalar ExamTaskNetwork.BrowsingLaptop[4].wlan[0].agent 	sentRequest:count 	48
attr title  "sent requests, count"
scalar ExamTaskNetwork.BrowsingLaptop[4].wlan[0].mgmt 	dropPkByQueue:count 	0
attr interpolationmode  none
attr source  dropPkByQueue
attr title  "packets dropped by queue, count"
scalar ExamTaskNetwork.BrowsingLaptop[4].wlan[0].mgmt 	dropPkByQueue:sum(packetBytes) 	0
attr interpolationmode  none
attr source  dropPkByQueue
attr title  "packets dropped by queue, sum(packetBytes)"
scalar ExamTaskNetwork.BrowsingLaptop[4].wlan[0].mgmt 	dataQueueLen:max 	1
attr interpolationmode  sample-hold
attr title  "data queue length, max"
scalar ExamTaskNetwork.BrowsingLaptop[4].wlan[0].mgmt 	dataQueueLen:timeavg 	2.138351041908e-06
attr interpolationmode  sample-hold
attr title  "data queue length, timeavg"
scalar ExamTaskNetwork.BrowsingLaptop[4].wlan[0].mac 	"number of received packets" 	26216
scalar ExamTaskNetwork.BrowsingLaptop[4].wlan[0].mac 	"number of collisions" 	45709
scalar ExamTaskNetwork.BrowsingLaptop[4].wlan[0].mac 	"number of internal collisions" 	0
scalar ExamTaskNetwork.BrowsingLaptop[4].wlan[0].mac 	"number of retry for AC 0" 	108
scalar ExamTaskNetwork.BrowsingLaptop[4].wlan[0].mac 	"sent and received bits" 	10700064
scalar ExamTaskNetwork.BrowsingLaptop[4].wlan[0].mac 	"sent packet within AC 0" 	12913
scalar ExamTaskNetwork.BrowsingLaptop[4].wlan[0].mac 	"sent in TXOP " 	0
scalar ExamTaskNetwork.BrowsingLaptop[4].wlan[0].mac 	"sentWithoutRetry AC 0" 	12840
scalar ExamTaskNetwork.BrowsingLaptop[4].wlan[0].mac 	"numGivenUp AC 0" 	0
scalar ExamTaskNetwork.BrowsingLaptop[4].wlan[0].mac 	"numDropped AC 0" 	0
scalar ExamTaskNetwork.BrowsingLaptop[4].wlan[0].mac 	rcvdPkFromHL:count 	12929
attr interpolationmode  none
attr source  packetReceivedFromUpper
attr title  "packets received from higher layer, count"
scalar ExamTaskNetwork.BrowsingLaptop[4].wlan[0].mac 	rcvdPkFromHL:sum(packetBytes) 	1337508
attr interpolationmode  none
attr source  packetReceivedFromUpper
attr title  "packets received from higher layer, sum(packetBytes)"
scalar ExamTaskNetwork.BrowsingLaptop[4].wlan[0].mac 	passedUpPk:count 	35539
attr interpolationmode  none
attr source  packetSentToUpper
attr title  "packets passed to higher layer, count"
scalar ExamTaskNetwork.BrowsingLaptop[4].wlan[0].mac 	passedUpPk:sum(packetBytes) 	22145310
attr interpolationmode  none
attr source  packetSentToUpper
attr title  "packets passed to higher layer, sum(packetBytes)"
scalar ExamTaskNetwork.BrowsingLaptop[4].wlan[0].mac 	rcvdPkFromLL:count 	3273634
attr interpolationmode  none
attr source  packetReceivedFromLower
attr title  "packets received from lower layer, count"
scalar ExamTaskNetwork.BrowsingLaptop[4].wlan[0].mac 	rcvdPkFromLL:sum(packetBytes) 	1330397324
attr interpolationmode  none
attr source  packetReceivedFromLower
attr title  "packets received from lower layer, sum(packetBytes)"
scalar ExamTaskNetwork.BrowsingLaptop[4].wlan[0].mac 	sentDownPk:count 	39253
attr interpolationmode  none
attr source  packetSentToLower
attr title  "packets sent to lower layer, count"
scalar ExamTaskNetwork.BrowsingLaptop[4].wlan[0].mac 	sentDownPk:sum(packetBytes) 	1768694
attr interpolationmode  none
attr source  packetSentToLower
attr title  "packets sent to lower layer, sum(packetBytes)"
scalar ExamTaskNetwork.BrowsingLaptop[4].wlan[0].radio 	lossRate:min 	0
attr interpolationmode  backward-sample-hold
attr title  "packet loss rate, min"
scalar ExamTaskNetwork.BrowsingLaptop[4].wlan[0].radio 	lossRate:max 	0.16
attr interpolationmode  backward-sample-hold
attr title  "packet loss rate, max"
scalar ExamTaskNetwork.BrowsingLaptop[4].wlan[0].radio 	lossRate:timeavg 	0.012781070836594
attr interpolationmode  backward-sample-hold
attr title  "packet loss rate, timeavg"
statistic ExamTaskNetwork.BrowsingLaptop[4].wlan[0].radio 	channelNo:histogram
field count 1
field mean 0
field stddev -nan
field sum 0
field sqrsum 0
field min 0
field max 0
attr interpolationmode  sample-hold
attr title  "channel no, histogram"
bin	-INF	0
bin	-0.5	0
bin	-0.46666666666667	0
bin	-0.43333333333333	0
bin	-0.4	0
bin	-0.36666666666667	0
bin	-0.33333333333333	0
bin	-0.3	0
bin	-0.26666666666667	0
bin	-0.23333333333333	0
bin	-0.2	0
bin	-0.16666666666667	0
bin	-0.13333333333333	0
bin	-0.1	0
bin	-0.066666666666667	0
bin	-0.033333333333333	0
bin	0	1
bin	0.033333333333333	0
bin	0.066666666666667	0
bin	0.1	0
bin	0.13333333333333	0
bin	0.16666666666667	0
bin	0.2	0
bin	0.23333333333333	0
bin	0.26666666666667	0
bin	0.3	0
bin	0.33333333333333	0
bin	0.36666666666667	0
bin	0.4	0
bin	0.43333333333333	0
bin	0.46666666666667	0
bin	0.5	0
scalar ExamTaskNetwork.BrowsingLaptop[4].wlan[0].radio 	radioState:count 	6625897
attr interpolationmode  sample-hold
attr title  "radio state (enum), count"
scalar ExamTaskNetwork.BrowsingLaptop[4].wlan[0].radio 	bitrate:min 	54000000
attr interpolationmode  sample-hold
attr title  "tx bitrate, min"
attr unit  bps
scalar ExamTaskNetwork.BrowsingLaptop[4].wlan[0].radio 	bitrate:max 	54000000
attr interpolationmode  sample-hold
attr title  "tx bitrate, max"
attr unit  bps
scalar ExamTaskNetwork.BrowsingLaptop[4].wlan[0].radio 	bitrate:timeavg 	54000000
attr interpolationmode  sample-hold
attr title  "tx bitrate, timeavg"
attr unit  bps
scalar ExamTaskNetwork.BrowsingLaptop[4].tcpApp[0] 	numActiveSessions:max 	1
attr interpolationmode  sample-hold
attr source  sum(connect)
attr title  "number of active sessions, max"
scalar ExamTaskNetwork.BrowsingLaptop[4].tcpApp[0] 	numActiveSessions:timeavg 	0.2487943183151
attr interpolationmode  sample-hold
attr source  sum(connect)
attr title  "number of active sessions, timeavg"
scalar ExamTaskNetwork.BrowsingLaptop[4].tcpApp[0] 	numSessions:last 	34
attr source  sum(connect+1)/2
attr title  "total number of sessions, last"
scalar ExamTaskNetwork.BrowsingLaptop[4].tcpApp[0] 	sentPk:count 	34
attr interpolationmode  none
attr source  sentPk
attr title  "packets sent, count"
scalar ExamTaskNetwork.BrowsingLaptop[4].tcpApp[0] 	sentPk:sum(packetBytes) 	278528
attr interpolationmode  none
attr source  sentPk
attr title  "packets sent, sum(packetBytes)"
scalar ExamTaskNetwork.BrowsingLaptop[4].tcpApp[0] 	rcvdPk:count 	34
attr interpolationmode  none
attr source  rcvdPk
attr title  "packets received, count"
scalar ExamTaskNetwork.BrowsingLaptop[4].tcpApp[0] 	rcvdPk:sum(packetBytes) 	17541036
attr interpolationmode  none
attr source  rcvdPk
attr title  "packets received, sum(packetBytes)"
statistic ExamTaskNetwork.BrowsingLaptop[4].tcpApp[0] 	endToEndDelay:histogram
field count 34
field mean 7.1113882733709
field stddev 4.6901862461258
field sum 241.78720129461
field sqrsum 2445.3716197082
field min 0.528294036982
field max 21.521595955381
attr interpolationmode  none
attr source  messageAge(rcvdPk)
attr title  "end-to-end delay, histogram"
attr unit  s
bin	-INF	0
bin	-9.9683569222175	0
bin	-8.5688034609909	0
bin	-7.1692499997643	0
bin	-5.7696965385377	0
bin	-4.3701430773111	0
bin	-2.9705896160845	0
bin	-1.5710361548579	0
bin	-0.1714826936313	1
bin	1.2280707675953	1
bin	2.6276242288219	6
bin	4.0271776900485	5
bin	5.4267311512751	8
bin	6.8262846125017	4
bin	8.2258380737283	2
bin	9.6253915349549	3
bin	11.024944996181	1
bin	12.424498457408	0
bin	13.824051918635	0
bin	15.223605379861	0
bin	16.623158841088	1
bin	18.022712302314	1
bin	19.422265763541	0
bin	20.821819224768	1
bin	22.221372685994	0
bin	23.620926147221	0
bin	25.020479608447	0
bin	26.420033069674	0
bin	27.819586530901	0
bin	29.219139992127	0
bin	30.618693453354	0
bin	32.018246914581	0
scalar ExamTaskNetwork.BrowsingLaptop[5].networkLayer.arp 	initiatedARPResolution:count 	8
attr title  "ARP initiated resolutions, count"
scalar ExamTaskNetwork.BrowsingLaptop[5].networkLayer.arp 	sentReply:count 	4
attr title  "ARP replies sent, count"
scalar ExamTaskNetwork.BrowsingLaptop[5].networkLayer.arp 	sentReq:count 	8
attr title  "ARP request sent, count"
scalar ExamTaskNetwork.BrowsingLaptop[5].networkLayer.arp 	failedARPResolution:count 	0
attr title  "ARP failed resolutions, count"
scalar ExamTaskNetwork.BrowsingLaptop[5].networkLayer.arp 	completedARPResolution:count 	37
attr title  "ARP completed resolutions, count"
scalar ExamTaskNetwork.BrowsingLaptop[5].lo0.lo 	rcvdPkFromHL:count 	0
attr interpolationmode  none
attr source  packetReceivedFromUpper
attr title  "packets received from higher layer, count"
scalar ExamTaskNetwork.BrowsingLaptop[5].lo0.lo 	rcvdPkFromHL:sum(packetBytes) 	0
attr interpolationmode  none
attr source  packetReceivedFromUpper
attr title  "packets received from higher layer, sum(packetBytes)"
scalar ExamTaskNetwork.BrowsingLaptop[5].lo0.lo 	passedUpPk:count 	0
attr interpolationmode  none
attr source  packetSentToUpper
attr title  "packets passed to higher layer, count"
scalar ExamTaskNetwork.BrowsingLaptop[5].lo0.lo 	passedUpPk:sum(packetBytes) 	0
attr interpolationmode  none
attr source  packetSentToUpper
attr title  "packets passed to higher layer, sum(packetBytes)"
scalar ExamTaskNetwork.BrowsingLaptop[5].lo0.lo 	droppedPkBitError:count 	0
attr interpolationmode  none
attr source  dropPkBitError
attr title  "packets dropped/bit error, count"
scalar ExamTaskNetwork.BrowsingLaptop[5].lo0.lo 	droppedPkBitError:sum(packetBytes) 	0
attr interpolationmode  none
attr source  dropPkBitError
attr title  "packets dropped/bit error, sum(packetBytes)"
scalar ExamTaskNetwork.BrowsingLaptop[5].wlan[0].agent 	dropConfirm:count 	0
attr title  "dropped confirms, count"
scalar ExamTaskNetwork.BrowsingLaptop[5].wlan[0].agent 	acceptConfirm:count 	48
attr title  "accepted confirms, count"
scalar ExamTaskNetwork.BrowsingLaptop[5].wlan[0].agent 	sentRequest:count 	48
attr title  "sent requests, count"
scalar ExamTaskNetwork.BrowsingLaptop[5].wlan[0].mgmt 	dropPkByQueue:count 	398
attr interpolationmode  none
attr source  dropPkByQueue
attr title  "packets dropped by queue, count"
scalar ExamTaskNetwork.BrowsingLaptop[5].wlan[0].mgmt 	dropPkByQueue:sum(packetBytes) 	38986
attr interpolationmode  none
attr source  dropPkByQueue
attr title  "packets dropped by queue, sum(packetBytes)"
scalar ExamTaskNetwork.BrowsingLaptop[5].wlan[0].mgmt 	dataQueueLen:max 	50
attr interpolationmode  sample-hold
attr title  "data queue length, max"
scalar ExamTaskNetwork.BrowsingLaptop[5].wlan[0].mgmt 	dataQueueLen:timeavg 	0.022258737156376
attr interpolationmode  sample-hold
attr title  "data queue length, timeavg"
scalar ExamTaskNetwork.BrowsingLaptop[5].wlan[0].mac 	"number of received packets" 	40712
scalar ExamTaskNetwork.BrowsingLaptop[5].wlan[0].mac 	"number of collisions" 	45511
scalar ExamTaskNetwork.BrowsingLaptop[5].wlan[0].mac 	"number of internal collisions" 	0
scalar ExamTaskNetwork.BrowsingLaptop[5].wlan[0].mac 	"number of retry for AC 0" 	343
scalar ExamTaskNetwork.BrowsingLaptop[5].wlan[0].mac 	"sent and received bits" 	16315536
scalar ExamTaskNetwork.BrowsingLaptop[5].wlan[0].mac 	"sent packet within AC 0" 	20870
scalar ExamTaskNetwork.BrowsingLaptop[5].wlan[0].mac 	"sent in TXOP " 	0
scalar ExamTaskNetwork.BrowsingLaptop[5].wlan[0].mac 	"sentWithoutRetry AC 0" 	20583
scalar ExamTaskNetwork.BrowsingLaptop[5].wlan[0].mac 	"numGivenUp AC 0" 	0
scalar ExamTaskNetwork.BrowsingLaptop[5].wlan[0].mac 	"numDropped AC 0" 	0
scalar ExamTaskNetwork.BrowsingLaptop[5].wlan[0].mac 	rcvdPkFromHL:count 	20886
attr interpolationmode  none
attr source  packetReceivedFromUpper
attr title  "packets received from higher layer, count"
scalar ExamTaskNetwork.BrowsingLaptop[5].wlan[0].mac 	rcvdPkFromHL:sum(packetBytes) 	2039442
attr interpolationmode  none
attr source  packetReceivedFromUpper
attr title  "packets received from higher layer, sum(packetBytes)"
scalar ExamTaskNetwork.BrowsingLaptop[5].wlan[0].mac 	passedUpPk:count 	50036
attr interpolationmode  none
attr source  packetSentToUpper
attr title  "packets passed to higher layer, count"
scalar ExamTaskNetwork.BrowsingLaptop[5].wlan[0].mac 	passedUpPk:sum(packetBytes) 	34268220
attr interpolationmode  none
attr source  packetSentToUpper
attr title  "packets passed to higher layer, sum(packetBytes)"
scalar ExamTaskNetwork.BrowsingLaptop[5].wlan[0].mac 	rcvdPkFromLL:count 	3250946
attr interpolationmode  none
attr source  packetReceivedFromLower
attr title  "packets received from lower layer, count"
scalar ExamTaskNetwork.BrowsingLaptop[5].wlan[0].mac 	rcvdPkFromLL:sum(packetBytes) 	1329580148
attr interpolationmode  none
attr source  packetReceivedFromLower
attr title  "packets received from lower layer, sum(packetBytes)"
scalar ExamTaskNetwork.BrowsingLaptop[5].wlan[0].mac 	sentDownPk:count 	61941
attr interpolationmode  none
attr source  packetSentToLower
attr title  "packets sent to lower layer, count"
scalar ExamTaskNetwork.BrowsingLaptop[5].wlan[0].mac 	sentDownPk:sum(packetBytes) 	2697798
attr interpolationmode  none
attr source  packetSentToLower
attr title  "packets sent to lower layer, sum(packetBytes)"
scalar ExamTaskNetwork.BrowsingLaptop[5].wlan[0].radio 	lossRate:min 	0
attr interpolationmode  backward-sample-hold
attr title  "packet loss rate, min"
scalar ExamTaskNetwork.BrowsingLaptop[5].wlan[0].radio 	lossRate:max 	0.16
attr interpolationmode  backward-sample-hold
attr title  "packet loss rate, max"
scalar ExamTaskNetwork.BrowsingLaptop[5].wlan[0].radio 	lossRate:timeavg 	0.012822769706695
attr interpolationmode  backward-sample-hold
attr title  "packet loss rate, timeavg"
statistic ExamTaskNetwork.BrowsingLaptop[5].wlan[0].radio 	channelNo:histogram
field count 1
field mean 0
field stddev -nan
field sum 0
field sqrsum 0
field min 0
field max 0
attr interpolationmode  sample-hold
attr title  "channel no, histogram"
bin	-INF	0
bin	-0.5	0
bin	-0.46666666666667	0
bin	-0.43333333333333	0
bin	-0.4	0
bin	-0.36666666666667	0
bin	-0.33333333333333	0
bin	-0.3	0
bin	-0.26666666666667	0
bin	-0.23333333333333	0
bin	-0.2	0
bin	-0.16666666666667	0
bin	-0.13333333333333	0
bin	-0.1	0
bin	-0.066666666666667	0
bin	-0.033333333333333	0
bin	0	1
bin	0.033333333333333	0
bin	0.066666666666667	0
bin	0.1	0
bin	0.13333333333333	0
bin	0.16666666666667	0
bin	0.2	0
bin	0.23333333333333	0
bin	0.26666666666667	0
bin	0.3	0
bin	0.33333333333333	0
bin	0.36666666666667	0
bin	0.4	0
bin	0.43333333333333	0
bin	0.46666666666667	0
bin	0.5	0
scalar ExamTaskNetwork.BrowsingLaptop[5].wlan[0].radio 	radioState:count 	6626200
attr interpolationmode  sample-hold
attr title  "radio state (enum), count"
scalar ExamTaskNetwork.BrowsingLaptop[5].wlan[0].radio 	bitrate:min 	54000000
attr interpolationmode  sample-hold
attr title  "tx bitrate, min"
attr unit  bps
scalar ExamTaskNetwork.BrowsingLaptop[5].wlan[0].radio 	bitrate:max 	54000000
attr interpolationmode  sample-hold
attr title  "tx bitrate, max"
attr unit  bps
scalar ExamTaskNetwork.BrowsingLaptop[5].wlan[0].radio 	bitrate:timeavg 	54000000
attr interpolationmode  sample-hold
attr title  "tx bitrate, timeavg"
attr unit  bps
scalar ExamTaskNetwork.BrowsingLaptop[5].tcpApp[0] 	numActiveSessions:max 	1
attr interpolationmode  sample-hold
attr source  sum(connect)
attr title  "number of active sessions, max"
scalar ExamTaskNetwork.BrowsingLaptop[5].tcpApp[0] 	numActiveSessions:timeavg 	0.4011856486117
attr interpolationmode  sample-hold
attr source  sum(connect)
attr title  "number of active sessions, timeavg"
scalar ExamTaskNetwork.BrowsingLaptop[5].tcpApp[0] 	numSessions:last 	38
attr source  sum(connect+1)/2
attr title  "total number of sessions, last"
scalar ExamTaskNetwork.BrowsingLaptop[5].tcpApp[0] 	sentPk:count 	38
attr interpolationmode  none
attr source  sentPk
attr title  "packets sent, count"
scalar ExamTaskNetwork.BrowsingLaptop[5].tcpApp[0] 	sentPk:sum(packetBytes) 	311296
attr interpolationmode  none
attr source  sentPk
attr title  "packets sent, sum(packetBytes)"
scalar ExamTaskNetwork.BrowsingLaptop[5].tcpApp[0] 	rcvdPk:count 	37
attr interpolationmode  none
attr source  rcvdPk
attr title  "packets received, count"
scalar ExamTaskNetwork.BrowsingLaptop[5].tcpApp[0] 	rcvdPk:sum(packetBytes) 	26277989
attr interpolationmode  none
attr source  rcvdPk
attr title  "packets received, sum(packetBytes)"
statistic ExamTaskNetwork.BrowsingLaptop[5].tcpApp[0] 	endToEndDelay:histogram
field count 37
field mean 10.338951511268
field stddev 7.9574811450063
field sum 382.5412059169
field sqrsum 6234.6492012694
field min 0.772452891843
field max 37.454051080758
attr interpolationmode  none
attr source  messageAge(rcvdPk)
attr title  "end-to-end delay, histogram"
attr unit  s
bin	-INF	0
bin	-17.568346202614	0
bin	-15.122906323353	0
bin	-12.677466444092	0
bin	-10.232026564831	0
bin	-7.7865866855705	0
bin	-5.3411468063095	0
bin	-2.8957069270485	0
bin	-0.4502670477875	2
bin	1.9951728314735	7
bin	4.4406127107345	8
bin	6.8860525899955	2
bin	9.3314924692565	5
bin	11.776932348518	5
bin	14.222372227779	3
bin	16.66781210704	2
bin	19.113251986301	0
bin	21.558691865562	0
bin	24.004131744823	0
bin	26.449571624084	2
bin	28.895011503345	0
bin	31.340451382606	0
bin	33.785891261866	0
bin	36.231331141127	1
bin	38.676771020389	0
bin	41.12221089965	0
bin	43.567650778911	0
bin	46.013090658172	0
bin	48.458530537433	0
bin	50.903970416694	0
bin	53.349410295954	0
bin	55.794850175216	0
scalar ExamTaskNetwork.BrowsingLaptop[6].networkLayer.arp 	initiatedARPResolution:count 	8
attr title  "ARP initiated resolutions, count"
scalar ExamTaskNetwork.BrowsingLaptop[6].networkLayer.arp 	sentReply:count 	3
attr title  "ARP replies sent, count"
scalar ExamTaskNetwork.BrowsingLaptop[6].networkLayer.arp 	sentReq:count 	8
attr title  "ARP request sent, count"
scalar ExamTaskNetwork.BrowsingLaptop[6].networkLayer.arp 	failedARPResolution:count 	0
attr title  "ARP failed resolutions, count"
scalar ExamTaskNetwork.BrowsingLaptop[6].networkLayer.arp 	completedARPResolution:count 	42
attr title  "ARP completed resolutions, count"
scalar ExamTaskNetwork.BrowsingLaptop[6].lo0.lo 	rcvdPkFromHL:count 	0
attr interpolationmode  none
attr source  packetReceivedFromUpper
attr title  "packets received from higher layer, count"
scalar ExamTaskNetwork.BrowsingLaptop[6].lo0.lo 	rcvdPkFromHL:sum(packetBytes) 	0
attr interpolationmode  none
attr source  packetReceivedFromUpper
attr title  "packets received from higher layer, sum(packetBytes)"
scalar ExamTaskNetwork.BrowsingLaptop[6].lo0.lo 	passedUpPk:count 	0
attr interpolationmode  none
attr source  packetSentToUpper
attr title  "packets passed to higher layer, count"
scalar ExamTaskNetwork.BrowsingLaptop[6].lo0.lo 	passedUpPk:sum(packetBytes) 	0
attr interpolationmode  none
attr source  packetSentToUpper
attr title  "packets passed to higher layer, sum(packetBytes)"
scalar ExamTaskNetwork.BrowsingLaptop[6].lo0.lo 	droppedPkBitError:count 	0
attr interpolationmode  none
attr source  dropPkBitError
attr title  "packets dropped/bit error, count"
scalar ExamTaskNetwork.BrowsingLaptop[6].lo0.lo 	droppedPkBitError:sum(packetBytes) 	0
attr interpolationmode  none
attr source  dropPkBitError
attr title  "packets dropped/bit error, sum(packetBytes)"
scalar ExamTaskNetwork.BrowsingLaptop[6].wlan[0].agent 	dropConfirm:count 	0
attr title  "dropped confirms, count"
scalar ExamTaskNetwork.BrowsingLaptop[6].wlan[0].agent 	acceptConfirm:count 	48
attr title  "accepted confirms, count"
scalar ExamTaskNetwork.BrowsingLaptop[6].wlan[0].agent 	sentRequest:count 	48
attr title  "sent requests, count"
scalar ExamTaskNetwork.BrowsingLaptop[6].wlan[0].mgmt 	dropPkByQueue:count 	0
attr interpolationmode  none
attr source  dropPkByQueue
attr title  "packets dropped by queue, count"
scalar ExamTaskNetwork.BrowsingLaptop[6].wlan[0].mgmt 	dropPkByQueue:sum(packetBytes) 	0
attr interpolationmode  none
attr source  dropPkByQueue
attr title  "packets dropped by queue, sum(packetBytes)"
scalar ExamTaskNetwork.BrowsingLaptop[6].wlan[0].mgmt 	dataQueueLen:max 	4
attr interpolationmode  sample-hold
attr title  "data queue length, max"
scalar ExamTaskNetwork.BrowsingLaptop[6].wlan[0].mgmt 	dataQueueLen:timeavg 	8.5708968765369e-06
attr interpolationmode  sample-hold
attr title  "data queue length, timeavg"
scalar ExamTaskNetwork.BrowsingLaptop[6].wlan[0].mac 	"number of received packets" 	27424
scalar ExamTaskNetwork.BrowsingLaptop[6].wlan[0].mac 	"number of collisions" 	45726
[...]
attr title  "pause sent, sum"
scalar ExamTaskNetwork.MainRouter.eth[1].encap 	decapPk:count 	24980
attr interpolationmode  none
attr source  decapPk
attr title  "packets decapsulated, count"
scalar ExamTaskNetwork.MainRouter.eth[1].encap 	decapPk:sum(packetBytes) 	35647640
attr interpolationmode  none
attr source  decapPk
attr title  "packets decapsulated, sum(packetBytes)"
scalar ExamTaskNetwork.MainRouter.eth[1].encap 	encapPk:count 	24812
attr interpolationmode  none
attr source  encapPk
attr title  "packets encapsulated, count"
scalar ExamTaskNetwork.MainRouter.eth[1].encap 	encapPk:sum(packetBytes) 	35407736
attr interpolationmode  none
attr source  encapPk
attr title  "packets encapsulated, sum(packetBytes)"
scalar ExamTaskNetwork.MainRouter.eth[2].mac 	"simulated time" 	1000.0001197615
scalar ExamTaskNetwork.MainRouter.eth[2].mac 	full-duplex 	1
scalar ExamTaskNetwork.MainRouter.eth[2].mac 	"frames/sec sent" 	174.74997907169
scalar ExamTaskNetwork.MainRouter.eth[2].mac 	"frames/sec rcvd" 	0.0089999989221471
scalar ExamTaskNetwork.MainRouter.eth[2].mac 	"bits/sec sent" 	2099709.2365358
scalar ExamTaskNetwork.MainRouter.eth[2].mac 	"bits/sec rcvd" 	4.6079994481393
scalar ExamTaskNetwork.MainRouter.eth[2].mac 	"rx channel idle (%)" 	99.999994816001
scalar ExamTaskNetwork.MainRouter.eth[2].mac 	"rx channel utilization (%)" 	5.1839993791567e-06
scalar ExamTaskNetwork.MainRouter.eth[2].mac 	rxPkFromHL:count 	174750
attr interpolationmode  none
attr source  rxPkFromHL
attr title  "packet bytes from higher layer, count"
scalar ExamTaskNetwork.MainRouter.eth[2].mac 	rxPkFromHL:sum(packetBytes) 	262463686
attr interpolationmode  none
attr source  rxPkFromHL
attr title  "packet bytes from higher layer, sum(packetBytes)"
scalar ExamTaskNetwork.MainRouter.eth[2].mac 	rxPausePkUnits:count 	0
attr interpolationmode  none
attr title  "pause units received, count"
scalar ExamTaskNetwork.MainRouter.eth[2].mac 	rxPausePkUnits:sum 	0
attr interpolationmode  none
attr title  "pause units received, sum"
scalar ExamTaskNetwork.MainRouter.eth[2].mac 	txPausePkUnits:count 	0
attr interpolationmode  none
attr title  "pause units sent, count"
scalar ExamTaskNetwork.MainRouter.eth[2].mac 	txPausePkUnits:sum 	0
attr interpolationmode  none
attr title  "pause units sent, sum"
scalar ExamTaskNetwork.MainRouter.eth[2].mac 	txPk:count 	174750
attr interpolationmode  none
attr source  txPk
attr title  "packets transmitted, count"
scalar ExamTaskNetwork.MainRouter.eth[2].mac 	txPk:sum(packetBytes) 	262463686
attr interpolationmode  none
attr source  txPk
attr title  "packets transmitted, sum(packetBytes)"
scalar ExamTaskNetwork.MainRouter.eth[2].mac 	droppedPkNotForUs:count 	0
attr interpolationmode  none
attr source  dropPkNotForUs
attr title  "packets dropped/not for us, count"
scalar ExamTaskNetwork.MainRouter.eth[2].mac 	droppedPkNotForUs:sum(packetBytes) 	0
attr interpolationmode  none
attr source  dropPkNotForUs
attr title  "packets dropped/not for us, sum(packetBytes)"
scalar ExamTaskNetwork.MainRouter.eth[2].mac 	passedUpPk:count 	9
attr interpolationmode  none
attr source  packetSentToUpper
attr title  "packets passed to higher layer, count"
scalar ExamTaskNetwork.MainRouter.eth[2].mac 	passedUpPk:sum(packetBytes) 	576
attr interpolationmode  none
attr source  packetSentToUpper
attr title  "packets passed to higher layer, sum(packetBytes)"
scalar ExamTaskNetwork.MainRouter.eth[2].mac 	droppedPkBitError:count 	0
attr interpolationmode  none
attr source  dropPkBitError
attr title  "packets dropped/bit error, count"
scalar ExamTaskNetwork.MainRouter.eth[2].mac 	droppedPkBitError:sum(packetBytes) 	0
attr interpolationmode  none
attr source  dropPkBitError
attr title  "packets dropped/bit error, sum(packetBytes)"
scalar ExamTaskNetwork.MainRouter.eth[2].mac 	droppedPkIfaceDown:count 	0
attr interpolationmode  none
attr source  dropPkIfaceDown
attr title  "packets dropped/interface down, count"
scalar ExamTaskNetwork.MainRouter.eth[2].mac 	droppedPkIfaceDown:sum(packetBytes) 	0
attr interpolationmode  none
attr source  dropPkIfaceDown
attr title  "packets dropped/interface down, sum(packetBytes)"
scalar ExamTaskNetwork.MainRouter.eth[2].mac 	rxPkOk:count 	9
attr interpolationmode  none
attr source  rxPkOk
attr title  "packets received OK, count"
scalar ExamTaskNetwork.MainRouter.eth[2].mac 	rxPkOk:sum(packetBytes) 	576
attr interpolationmode  none
attr source  rxPkOk
attr title  "packets received OK, sum(packetBytes)"
scalar ExamTaskNetwork.MainRouter.eth[2].encap 	pauseSent:count 	0
attr title  "pause sent, count"
scalar ExamTaskNetwork.MainRouter.eth[2].encap 	pauseSent:sum 	0
attr title  "pause sent, sum"
scalar ExamTaskNetwork.MainRouter.eth[2].encap 	decapPk:count 	9
attr interpolationmode  none
attr source  decapPk
attr title  "packets decapsulated, count"
scalar ExamTaskNetwork.MainRouter.eth[2].encap 	decapPk:sum(packetBytes) 	252
attr interpolationmode  none
attr source  decapPk
attr title  "packets decapsulated, sum(packetBytes)"
scalar ExamTaskNetwork.MainRouter.eth[2].encap 	encapPk:count 	174750
attr interpolationmode  none
attr source  encapPk
attr title  "packets encapsulated, count"
scalar ExamTaskNetwork.MainRouter.eth[2].encap 	encapPk:sum(packetBytes) 	259318024
attr interpolationmode  none
attr source  encapPk
attr title  "packets encapsulated, sum(packetBytes)"
scalar ExamTaskNetwork.MainRouter.ppp[0].outputHook[0] 	duration 	1000.0001197615
scalar ExamTaskNetwork.MainRouter.ppp[0].outputHook[0] 	"total packets" 	975689
scalar ExamTaskNetwork.MainRouter.ppp[0].outputHook[0] 	"total bits" 	3071504008
scalar ExamTaskNetwork.MainRouter.ppp[0].outputHook[0] 	"avg throughput (bit/s)" 	3071503.6401523
scalar ExamTaskNetwork.MainRouter.ppp[0].outputHook[0] 	"avg packets/s" 	975.68888315008
scalar ExamTaskNetwork.MainRouter.ppp[0].inputHook[0] 	duration 	1000.0001197615
scalar ExamTaskNetwork.MainRouter.ppp[0].inputHook[0] 	"total packets" 	895909
scalar ExamTaskNetwork.MainRouter.ppp[0].inputHook[0] 	"total bits" 	8684359664
scalar ExamTaskNetwork.MainRouter.ppp[0].inputHook[0] 	"avg throughput (bit/s)" 	8684358.6239486
scalar ExamTaskNetwork.MainRouter.ppp[0].inputHook[0] 	"avg packets/s" 	895.90889270465
statistic ExamTaskNetwork.MainRouter.ppp[0].queue 	queueingTime:histogram
field count 912841
field mean 0.0014163097754332
field stddev 0.0041356242131824
field sum 1292.8656317162
field sqrsum 17.443754599119
field min 0
field max 0.03938035405
attr interpolationmode  none
attr title  "queueing time, histogram"
bin	-INF	0
bin	-0.0009509733325	0
bin	-0.00082417688816667	0
bin	-0.00069738044383333	0
bin	-0.0005705839995	0
bin	-0.00044378755516667	0
bin	-0.00031699111083333	0
bin	-0.0001901946665	0
bin	-6.3398222166667e-05	560514
bin	6.3398222166667e-05	23040
bin	0.0001901946665	5354
bin	0.00031699111083333	4435
bin	0.00044378755516667	4884
bin	0.0005705839995	6279
bin	0.00069738044383333	4899
bin	0.00082417688816667	26472
bin	0.0009509733325	90483
bin	0.0010777697768333	11836
bin	0.0012045662211667	3546
bin	0.0013313626655	2787
bin	0.0014581591098333	4356
bin	0.0015849555541667	4239
bin	0.0017117519985	7875
bin	0.0018385484428333	26545
bin	0.0019653448871667	5042
bin	0.0020921413315	4621
bin	0.0022189377758333	2443
bin	0.0023457342201667	2054
bin	0.0024725306645	2617
bin	0.0025993271088333	4793
bin	0.0027261235531667	7575
bin	0.0028529199975	96152
scalar ExamTaskNetwork.MainRouter.ppp[0].queue 	dropPk:count 	62848
attr interpolationmode  none
attr source  dropPkByQueue
attr title  "dropped packets, count"
scalar ExamTaskNetwork.MainRouter.ppp[0].queue 	dropPk:sum(packetBytes) 	44876036
attr interpolationmode  none
attr source  dropPkByQueue
attr title  "dropped packets, sum(packetBytes)"
scalar ExamTaskNetwork.MainRouter.ppp[0].queue 	queueLength:max 	50
attr interpolationmode  sample-hold
attr title  "queue length, max"
scalar ExamTaskNetwork.MainRouter.ppp[0].queue 	queueLength:timeavg 	1.29286547688
attr interpolationmode  sample-hold
attr title  "queue length, timeavg"
scalar ExamTaskNetwork.MainRouter.ppp[0].queue 	rcvdPk:count 	975689
attr interpolationmode  none
attr title  "received packets, count"
scalar ExamTaskNetwork.MainRouter.ppp[0].queue 	rcvdPk:sum(packetBytes) 	383938001
attr interpolationmode  none
attr title  "received packets, sum(packetBytes)"
scalar ExamTaskNetwork.MainRouter.ppp[0].ppp 	rcvdPkFromHL:count 	912841
attr interpolationmode  none
attr source  packetReceivedFromUpper
attr title  "packets received from higher layer, count"
scalar ExamTaskNetwork.MainRouter.ppp[0].ppp 	rcvdPkFromHL:sum(packetBytes) 	339061965
attr interpolationmode  none
attr source  packetReceivedFromUpper
attr title  "packets received from higher layer, sum(packetBytes)"
scalar ExamTaskNetwork.MainRouter.ppp[0].ppp 	passedUpPk:count 	895909
attr interpolationmode  none
attr source  packetSentToUpper
attr title  "packets passed to higher layer, count"
scalar ExamTaskNetwork.MainRouter.ppp[0].ppp 	passedUpPk:sum(packetBytes) 	1085544958
attr interpolationmode  none
attr source  packetSentToUpper
attr title  "packets passed to higher layer, sum(packetBytes)"
scalar ExamTaskNetwork.MainRouter.ppp[0].ppp 	txPk:count 	912841
attr interpolationmode  none
attr source  packetSentToLower
attr title  "packets transmitted, count"
scalar ExamTaskNetwork.MainRouter.ppp[0].ppp 	txPk:sum(packetBytes) 	345451852
attr interpolationmode  none
attr source  packetSentToLower
attr title  "packets transmitted, sum(packetBytes)"
scalar ExamTaskNetwork.MainRouter.ppp[0].ppp 	droppedPkBitError:count 	0
attr interpolationmode  none
attr source  dropPkBitError
attr title  "packets dropped/bit error, count"
scalar ExamTaskNetwork.MainRouter.ppp[0].ppp 	droppedPkBitError:sum(packetBytes) 	0
attr interpolationmode  none
attr source  dropPkBitError
attr title  "packets dropped/bit error, sum(packetBytes)"
scalar ExamTaskNetwork.MainRouter.ppp[0].ppp 	droppedPkIfaceDown:count 	0
attr interpolationmode  none
attr source  dropPkIfaceDown
attr title  "packets dropped/interface down, count"
scalar ExamTaskNetwork.MainRouter.ppp[0].ppp 	droppedPkIfaceDown:sum(packetBytes) 	0
attr interpolationmode  none
attr source  dropPkIfaceDown
attr title  "packets dropped/interface down, sum(packetBytes)"
scalar ExamTaskNetwork.MainRouter.ppp[0].ppp 	rxPkOk:count 	895909
attr interpolationmode  none
attr source  rxPkOk
attr title  "packets received OK, count"
scalar ExamTaskNetwork.MainRouter.ppp[0].ppp 	rxPkOk:sum(packetBytes) 	1091816321
attr interpolationmode  none
attr source  rxPkOk
attr title  "packets received OK, sum(packetBytes)"
scalar ExamTaskNetwork.MainRouter.ppp[0].ppp 	txState:timeavg 	0.23030120677223
attr interpolationmode  sample-hold
attr title  "tx state, timeavg"
scalar ExamTaskNetwork.Internet.networkLayer.arp 	initiatedARPResolution:count 	90
attr title  "ARP initiated resolutions, count"
scalar ExamTaskNetwork.Internet.networkLayer.arp 	sentReply:count 	2
attr title  "ARP replies sent, count"
scalar ExamTaskNetwork.Internet.networkLayer.arp 	sentReq:count 	90
attr title  "ARP request sent, count"
scalar ExamTaskNetwork.Internet.networkLayer.arp 	failedARPResolution:count 	0
attr title  "ARP failed resolutions, count"
scalar ExamTaskNetwork.Internet.networkLayer.arp 	completedARPResolution:count 	92
attr title  "ARP completed resolutions, count"
scalar ExamTaskNetwork.Internet.lo0.lo 	rcvdPkFromHL:count 	0
attr interpolationmode  none
attr source  packetReceivedFromUpper
attr title  "packets received from higher layer, count"
scalar ExamTaskNetwork.Internet.lo0.lo 	rcvdPkFromHL:sum(packetBytes) 	0
attr interpolationmode  none
attr source  packetReceivedFromUpper
attr title  "packets received from higher layer, sum(packetBytes)"
scalar ExamTaskNetwork.Internet.lo0.lo 	passedUpPk:count 	0
attr interpolationmode  none
attr source  packetSentToUpper
attr title  "packets passed to higher layer, count"
scalar ExamTaskNetwork.Internet.lo0.lo 	passedUpPk:sum(packetBytes) 	0
attr interpolationmode  none
attr source  packetSentToUpper
attr title  "packets passed to higher layer, sum(packetBytes)"
scalar ExamTaskNetwork.Internet.lo0.lo 	droppedPkBitError:count 	0
attr interpolationmode  none
attr source  dropPkBitError
attr title  "packets dropped/bit error, count"
scalar ExamTaskNetwork.Internet.lo0.lo 	droppedPkBitError:sum(packetBytes) 	0
attr interpolationmode  none
attr source  dropPkBitError
attr title  "packets dropped/bit error, sum(packetBytes)"
scalar ExamTaskNetwork.Internet.eth[0].mac 	"simulated time" 	1000.0001197615
scalar ExamTaskNetwork.Internet.eth[0].mac 	full-duplex 	1
scalar ExamTaskNetwork.Internet.eth[0].mac 	"frames/sec sent" 	950.83888612615
scalar ExamTaskNetwork.Internet.eth[0].mac 	"frames/sec rcvd" 	1216.5298543066
scalar ExamTaskNetwork.Internet.eth[0].mac 	"bits/sec sent" 	2982566.3708035
scalar ExamTaskNetwork.Internet.eth[0].mac 	"bits/sec rcvd" 	6676184.3444505
scalar ExamTaskNetwork.Internet.eth[0].mac 	"rx channel idle (%)" 	93.245957744874
scalar ExamTaskNetwork.Internet.eth[0].mac 	"rx channel utilization (%)" 	6.7540422551259
scalar ExamTaskNetwork.Internet.eth[0].mac 	rxPkFromHL:count 	950839
attr interpolationmode  none
attr source  rxPkFromHL
attr title  "packet bytes from higher layer, count"
scalar ExamTaskNetwork.Internet.eth[0].mac 	rxPkFromHL:sum(packetBytes) 	372820841
attr interpolationmode  none
attr source  rxPkFromHL
attr title  "packet bytes from higher layer, sum(packetBytes)"
scalar ExamTaskNetwork.Internet.eth[0].mac 	rxPausePkUnits:count 	0
attr interpolationmode  none
attr title  "pause units received, count"
scalar ExamTaskNetwork.Internet.eth[0].mac 	rxPausePkUnits:sum 	0
attr interpolationmode  none
attr title  "pause units received, sum"
scalar ExamTaskNetwork.Internet.eth[0].mac 	txPausePkUnits:count 	0
attr interpolationmode  none
attr title  "pause units sent, count"
scalar ExamTaskNetwork.Internet.eth[0].mac 	txPausePkUnits:sum 	0
attr interpolationmode  none
attr title  "pause units sent, sum"
scalar ExamTaskNetwork.Internet.eth[0].mac 	txPk:count 	950839
attr interpolationmode  none
attr source  txPk
attr title  "packets transmitted, count"
scalar ExamTaskNetwork.Internet.eth[0].mac 	txPk:sum(packetBytes) 	372820841
attr interpolationmode  none
attr source  txPk
attr title  "packets transmitted, sum(packetBytes)"
scalar ExamTaskNetwork.Internet.eth[0].mac 	droppedPkNotForUs:count 	0
attr interpolationmode  none
attr source  dropPkNotForUs
attr title  "packets dropped/not for us, count"
scalar ExamTaskNetwork.Internet.eth[0].mac 	droppedPkNotForUs:sum(packetBytes) 	0
attr interpolationmode  none
attr source  dropPkNotForUs
attr title  "packets dropped/not for us, sum(packetBytes)"
scalar ExamTaskNetwork.Internet.eth[0].mac 	passedUpPk:count 	1216530
attr interpolationmode  none
attr source  packetSentToUpper
attr title  "packets passed to higher layer, count"
scalar ExamTaskNetwork.Internet.eth[0].mac 	passedUpPk:sum(packetBytes) 	834523143
attr interpolationmode  none
attr source  packetSentToUpper
attr title  "packets passed to higher layer, sum(packetBytes)"
scalar ExamTaskNetwork.Internet.eth[0].mac 	droppedPkBitError:count 	0
attr interpolationmode  none
attr source  dropPkBitError
attr title  "packets dropped/bit error, count"
scalar ExamTaskNetwork.Internet.eth[0].mac 	droppedPkBitError:sum(packetBytes) 	0
attr interpolationmode  none
attr source  dropPkBitError
attr title  "packets dropped/bit error, sum(packetBytes)"
scalar ExamTaskNetwork.Internet.eth[0].mac 	droppedPkIfaceDown:count 	0
attr interpolationmode  none
attr source  dropPkIfaceDown
attr title  "packets dropped/interface down, count"
scalar ExamTaskNetwork.Internet.eth[0].mac 	droppedPkIfaceDown:sum(packetBytes) 	0
attr interpolationmode  none
attr source  dropPkIfaceDown
attr title  "packets dropped/interface down, sum(packetBytes)"
scalar ExamTaskNetwork.Internet.eth[0].mac 	rxPkOk:count 	1216530
attr interpolationmode  none
attr source  rxPkOk
attr title  "packets received OK, count"
scalar ExamTaskNetwork.Internet.eth[0].mac 	rxPkOk:sum(packetBytes) 	834523143
attr interpolationmode  none
attr source  rxPkOk
attr title  "packets received OK, sum(packetBytes)"
scalar ExamTaskNetwork.Internet.eth[0].encap 	pauseSent:count 	0
attr title  "pause sent, count"
scalar ExamTaskNetwork.Internet.eth[0].encap 	pauseSent:sum 	0
attr title  "pause sent, sum"
scalar ExamTaskNetwork.Internet.eth[0].encap 	decapPk:count 	1216530
attr interpolationmode  none
attr source  decapPk
attr title  "packets decapsulated, count"
scalar ExamTaskNetwork.Internet.eth[0].encap 	decapPk:sum(packetBytes) 	801195508
attr interpolationmode  none
attr source  decapPk
attr title  "packets decapsulated, sum(packetBytes)"
scalar ExamTaskNetwork.Internet.eth[0].encap 	encapPk:count 	950839
attr interpolationmode  none
attr source  encapPk
attr title  "packets encapsulated, count"
scalar ExamTaskNetwork.Internet.eth[0].encap 	encapPk:sum(packetBytes) 	348300854
attr interpolationmode  none
attr source  encapPk
attr title  "packets encapsulated, sum(packetBytes)"
scalar ExamTaskNetwork.Internet.tcpApp[0] 	sentPk:count 	345
attr interpolationmode  none
attr source  sentPk
attr title  "packets sent, count"
scalar ExamTaskNetwork.Internet.tcpApp[0] 	sentPk:sum(packetBytes) 	237823993
attr interpolationmode  none
attr source  sentPk
attr title  "packets sent, sum(packetBytes)"
scalar ExamTaskNetwork.Internet.tcpApp[0] 	rcvdPk:count 	345
attr interpolationmode  none
attr source  rcvdPk
attr title  "packets received, count"
scalar ExamTaskNetwork.Internet.tcpApp[0] 	rcvdPk:sum(packetBytes) 	2826240
attr interpolationmode  none
attr source  rcvdPk
attr title  "packets received, sum(packetBytes)"
statistic ExamTaskNetwork.Internet.tcpApp[0] 	endToEndDelay:histogram
field count 345
field mean 0.38078953446181
field stddev 0.82197419419659
field sum 131.37238938932
field sqrsum 282.44593311494
field min 0.207764016731
field max 9.224487010292
attr interpolationmode  none
attr source  messageAge(rcvdPk)
attr title  "end-to-end delay, histogram"
attr unit  s
bin	-INF	0
bin	-4.3005972523255	0
bin	-3.6994823962092	0
bin	-3.0983675400928	0
bin	-2.4972526839765	0
bin	-1.8961378278602	0
bin	-1.2950229717438	0
bin	-0.6939081156275	0
bin	-0.092793259511167	334
bin	0.50832159660517	0
bin	1.1094364527215	0
bin	1.7105513088378	0
bin	2.3116661649542	1
bin	2.9127810210705	8
bin	3.5138958771868	0
bin	4.1150107333032	0
bin	4.7161255894195	0
bin	5.3172404455358	0
bin	5.9183553016522	0
bin	6.5194701577685	0
bin	7.1205850138848	0
bin	7.7216998700012	0
bin	8.3228147261175	0
bin	8.9239295822338	2
bin	9.5250444383502	0
bin	10.126159294467	0
bin	10.727274150583	0
bin	11.328389006699	0
bin	11.929503862816	0
bin	12.530618718932	0
bin	13.131733575048	0
bin	13.732848431165	0
scalar ExamTaskNetwork.Internet.tcpApp[1] 	rcvdPk:count 	492306
attr interpolationmode  none
attr source  rcvdPk
attr title  "packets received, count"
scalar ExamTaskNetwork.Internet.tcpApp[1] 	rcvdPk:sum(packetBytes) 	759523743
attr interpolationmode  none
attr source  rcvdPk
attr title  "packets received, sum(packetBytes)"
statistic ExamTaskNetwork.Internet.tcpApp[1] 	endToEndDelay:histogram
field count 492306
field mean 0
field stddev 0
field sum 0
field sqrsum 0
field min 0
field max 0
attr interpolationmode  none
attr source  messageAge(rcvdPk)
attr title  "end-to-end delay, histogram"
attr unit  s
bin	-INF	0
bin	-0.5	0
bin	-0.46666666666667	0
bin	-0.43333333333333	0
bin	-0.4	0
bin	-0.36666666666667	0
bin	-0.33333333333333	0
bin	-0.3	0
bin	-0.26666666666667	0
bin	-0.23333333333333	0
bin	-0.2	0
bin	-0.16666666666667	0
bin	-0.13333333333333	0
bin	-0.1	0
bin	-0.066666666666667	0
bin	-0.033333333333333	0
bin	0	492306
bin	0.033333333333333	0
bin	0.066666666666667	0
bin	0.1	0
bin	0.13333333333333	0
bin	0.16666666666667	0
bin	0.2	0
bin	0.23333333333333	0
bin	0.26666666666667	0
bin	0.3	0
bin	0.33333333333333	0
bin	0.36666666666667	0
bin	0.4	0
bin	0.43333333333333	0
bin	0.46666666666667	0
bin	0.5	0
