version 2
run ExamTaskNetwork-77-20160820-16:29:29-17061
attr configname ExamTaskNetwork
attr datetime 20160820-16:29:29
attr experiment ExamTaskNetwork
attr inifile omnetpp.ini
attr iterationvars "$simtime=1000, $0=30"
attr iterationvars2 "$simtime=1000, $0=30, $repetition=2"
attr measurement "$simtime=1000, $0=30"
attr network ExamTaskNetwork
attr processid 17061
attr repetition 2
attr replication #2
attr resultdir results
attr runnumber 77
attr seedset 77
attr simtime 1000

scalar . 	simtime 	1000
scalar ExamTaskNetwork.ConferenceLaptop.networkLayer.arp 	initiatedARPResolution:count 	9
attr title  "ARP initiated resolutions, count"
scalar ExamTaskNetwork.ConferenceLaptop.networkLayer.arp 	sentReply:count 	6
attr title  "ARP replies sent, count"
scalar ExamTaskNetwork.ConferenceLaptop.networkLayer.arp 	sentReq:count 	9
attr title  "ARP request sent, count"
scalar ExamTaskNetwork.ConferenceLaptop.networkLayer.arp 	failedARPResolution:count 	0
attr title  "ARP failed resolutions, count"
scalar ExamTaskNetwork.ConferenceLaptop.networkLayer.arp 	completedARPResolution:count 	135
attr title  "ARP completed resolutions, count"
scalar ExamTaskNetwork.ConferenceLaptop.lo0.lo 	rcvdPkFromHL:count 	0
attr interpolationmode  none
attr source  packetReceivedFromUpper
attr title  "packets received from higher layer, count"
scalar ExamTaskNetwork.ConferenceLaptop.lo0.lo 	rcvdPkFromHL:sum(packetBytes) 	0
attr interpolationmode  none
attr source  packetReceivedFromUpper
attr title  "packets received from higher layer, sum(packetBytes)"
scalar ExamTaskNetwork.ConferenceLaptop.lo0.lo 	passedUpPk:count 	0
attr interpolationmode  none
attr source  packetSentToUpper
attr title  "packets passed to higher layer, count"
scalar ExamTaskNetwork.ConferenceLaptop.lo0.lo 	passedUpPk:sum(packetBytes) 	0
attr interpolationmode  none
attr source  packetSentToUpper
attr title  "packets passed to higher layer, sum(packetBytes)"
scalar ExamTaskNetwork.ConferenceLaptop.lo0.lo 	droppedPkBitError:count 	0
attr interpolationmode  none
attr source  dropPkBitError
attr title  "packets dropped/bit error, count"
scalar ExamTaskNetwork.ConferenceLaptop.lo0.lo 	droppedPkBitError:sum(packetBytes) 	0
attr interpolationmode  none
attr source  dropPkBitError
attr title  "packets dropped/bit error, sum(packetBytes)"
scalar ExamTaskNetwork.ConferenceLaptop.wlan[0].agent 	dropConfirm:count 	0
attr title  "dropped confirms, count"
scalar ExamTaskNetwork.ConferenceLaptop.wlan[0].agent 	acceptConfirm:count 	33
attr title  "accepted confirms, count"
scalar ExamTaskNetwork.ConferenceLaptop.wlan[0].agent 	sentRequest:count 	33
attr title  "sent requests, count"
scalar ExamTaskNetwork.ConferenceLaptop.wlan[0].mgmt 	dropPkByQueue:count 	0
attr interpolationmode  none
attr source  dropPkByQueue
attr title  "packets dropped by queue, count"
scalar ExamTaskNetwork.ConferenceLaptop.wlan[0].mgmt 	dropPkByQueue:sum(packetBytes) 	0
attr interpolationmode  none
attr source  dropPkByQueue
attr title  "packets dropped by queue, sum(packetBytes)"
scalar ExamTaskNetwork.ConferenceLaptop.wlan[0].mgmt 	dataQueueLen:max 	3
attr interpolationmode  sample-hold
attr title  "data queue length, max"
scalar ExamTaskNetwork.ConferenceLaptop.wlan[0].mgmt 	dataQueueLen:timeavg 	0.0008508013527426
attr interpolationmode  sample-hold
attr title  "data queue length, timeavg"
scalar ExamTaskNetwork.ConferenceLaptop.wlan[0].mac 	"number of received packets" 	24412
scalar ExamTaskNetwork.ConferenceLaptop.wlan[0].mac 	"number of collisions" 	40404
scalar ExamTaskNetwork.ConferenceLaptop.wlan[0].mac 	"number of internal collisions" 	0
scalar ExamTaskNetwork.ConferenceLaptop.wlan[0].mac 	"number of retry for AC 0" 	8187
scalar ExamTaskNetwork.ConferenceLaptop.wlan[0].mac 	"sent and received bits" 	292175456
scalar ExamTaskNetwork.ConferenceLaptop.wlan[0].mac 	"sent packet within AC 0" 	24891
scalar ExamTaskNetwork.ConferenceLaptop.wlan[0].mac 	"sent in TXOP " 	0
scalar ExamTaskNetwork.ConferenceLaptop.wlan[0].mac 	"sentWithoutRetry AC 0" 	18784
scalar ExamTaskNetwork.ConferenceLaptop.wlan[0].mac 	"numGivenUp AC 0" 	4
scalar ExamTaskNetwork.ConferenceLaptop.wlan[0].mac 	"numDropped AC 0" 	0
scalar ExamTaskNetwork.ConferenceLaptop.wlan[0].mac 	rcvdPkFromHL:count 	24906
attr interpolationmode  none
attr source  packetReceivedFromUpper
attr title  "packets received from higher layer, count"
scalar ExamTaskNetwork.ConferenceLaptop.wlan[0].mac 	rcvdPkFromHL:sum(packetBytes) 	36527812
attr interpolationmode  none
attr source  packetReceivedFromUpper
attr title  "packets received from higher layer, sum(packetBytes)"
scalar ExamTaskNetwork.ConferenceLaptop.wlan[0].mac 	passedUpPk:count 	34112
attr interpolationmode  none
attr source  packetSentToUpper
attr title  "packets passed to higher layer, count"
scalar ExamTaskNetwork.ConferenceLaptop.wlan[0].mac 	passedUpPk:sum(packetBytes) 	36576204
attr interpolationmode  none
attr source  packetSentToUpper
attr title  "packets passed to higher layer, sum(packetBytes)"
scalar ExamTaskNetwork.ConferenceLaptop.wlan[0].mac 	rcvdPkFromLL:count 	3624297
attr interpolationmode  none
attr source  packetReceivedFromLower
attr title  "packets received from lower layer, count"
scalar ExamTaskNetwork.ConferenceLaptop.wlan[0].mac 	rcvdPkFromLL:sum(packetBytes) 	1347347576
attr interpolationmode  none
attr source  packetReceivedFromLower
attr title  "packets received from lower layer, sum(packetBytes)"
scalar ExamTaskNetwork.ConferenceLaptop.wlan[0].mac 	sentDownPk:count 	57505
attr interpolationmode  none
attr source  packetSentToLower
attr title  "packets sent to lower layer, count"
scalar ExamTaskNetwork.ConferenceLaptop.wlan[0].mac 	sentDownPk:sum(packetBytes) 	48855898
attr interpolationmode  none
attr source  packetSentToLower
attr title  "packets sent to lower layer, sum(packetBytes)"
scalar ExamTaskNetwork.ConferenceLaptop.wlan[0].radio 	lossRate:min 	0
attr interpolationmode  backward-sample-hold
attr title  "packet loss rate, min"
scalar ExamTaskNetwork.ConferenceLaptop.wlan[0].radio 	lossRate:max 	0.2
attr interpolationmode  backward-sample-hold
attr title  "packet loss rate, max"
scalar ExamTaskNetwork.ConferenceLaptop.wlan[0].radio 	lossRate:timeavg 	0.01088949712397
attr interpolationmode  backward-sample-hold
attr title  "packet loss rate, timeavg"
statistic ExamTaskNetwork.ConferenceLaptop.wlan[0].radio 	channelNo:histogram
field count 1
field mean 0
field stddev -nan
field sum 0
field sqrsum 0
field min 0
field max 0
attr interpolationmode  sample-hold
attr title  "channel no, histogram"
bin	-INF	0
bin	-0.5	0
bin	-0.46666666666667	0
bin	-0.43333333333333	0
bin	-0.4	0
bin	-0.36666666666667	0
bin	-0.33333333333333	0
bin	-0.3	0
bin	-0.26666666666667	0
bin	-0.23333333333333	0
bin	-0.2	0
bin	-0.16666666666667	0
bin	-0.13333333333333	0
bin	-0.1	0
bin	-0.066666666666667	0
bin	-0.033333333333333	0
bin	0	1
bin	0.033333333333333	0
bin	0.066666666666667	0
bin	0.1	0
bin	0.13333333333333	0
bin	0.16666666666667	0
bin	0.2	0
bin	0.23333333333333	0
bin	0.26666666666667	0
bin	0.3	0
bin	0.33333333333333	0
bin	0.36666666666667	0
bin	0.4	0
bin	0.43333333333333	0
bin	0.46666666666667	0
bin	0.5	0
scalar ExamTaskNetwork.ConferenceLaptop.wlan[0].radio 	radioState:count 	7372403
attr interpolationmode  sample-hold
attr title  "radio state (enum), count"
scalar ExamTaskNetwork.ConferenceLaptop.wlan[0].radio 	bitrate:min 	54000000
attr interpolationmode  sample-hold
attr title  "tx bitrate, min"
attr unit  bps
scalar ExamTaskNetwork.ConferenceLaptop.wlan[0].radio 	bitrate:max 	54000000
attr interpolationmode  sample-hold
attr title  "tx bitrate, max"
attr unit  bps
scalar ExamTaskNetwork.ConferenceLaptop.wlan[0].radio 	bitrate:timeavg 	54000000
attr interpolationmode  sample-hold
attr title  "tx bitrate, timeavg"
attr unit  bps
scalar ExamTaskNetwork.ConferenceLaptop.udpApp[0] 	"packets sent" 	24963
scalar ExamTaskNetwork.ConferenceLaptop.udpApp[0] 	"packets received" 	24258
scalar ExamTaskNetwork.ConferenceLaptop.udpApp[0] 	lateRatio 	0.00024734108592384
scalar ExamTaskNetwork.ConferenceLaptop.udpApp[0] 	"discarded packets" 	6
statistic ExamTaskNetwork.ConferenceLaptop.udpApp[0] 	endToEndDelay:stats
field count 24258
field mean 0.047128891799446
field stddev 0.01677590611868
field sum 1143.252657271
field sqrsum 60.706903184127
field min 0.016460972028
field max 0.129748001618
attr source  VoIPPacketDelay
attr title  "VoIP Packet End-to-End Delay, stats"
attr unit  s
scalar ExamTaskNetwork.ConferenceLaptop.udpApp[0] 	sentPk:count 	24963
attr interpolationmode  none
attr source  sentPk
attr title  "packets sent, count"
scalar ExamTaskNetwork.ConferenceLaptop.udpApp[0] 	sentPk:sum(packetBytes) 	34948200
attr interpolationmode  none
attr source  sentPk
attr title  "packets sent, sum(packetBytes)"
scalar ExamTaskNetwork.ConferenceLaptop.udpApp[0] 	rcvdPk:count 	24258
attr interpolationmode  none
attr source  rcvdPk
attr title  "packets received, count"
scalar ExamTaskNetwork.ConferenceLaptop.udpApp[0] 	rcvdPk:sum(packetBytes) 	33961200
attr interpolationmode  none
attr source  rcvdPk
attr title  "packets received, sum(packetBytes)"
statistic ExamTaskNetwork.ConferenceLaptop.udpApp[0] 	rcvdPkLifetime:stats
field count 24258
field mean 0.047128891799446
field stddev 0.01677590611868
field sum 1143.252657271
field sqrsum 60.706903184127
field min 0.016460972028
field max 0.129748001618
attr interpolationmode  none
attr source  messageAge(rcvdPk)
attr title  "received packet lifetime, stats"
attr unit  s
scalar ExamTaskNetwork.ConferenceLaptop.udp 	droppedPkBadChecksum:count 	0
attr interpolationmode  none
attr title  "packets dropped (checksum error), count"
scalar ExamTaskNetwork.ConferenceLaptop.udp 	droppedPkWrongPort:count 	0
attr interpolationmode  none
attr title  "packets dropped (wrong port), count"
scalar ExamTaskNetwork.ConferenceLaptop.udp 	passedUpPk:count 	24258
attr interpolationmode  none
attr title  "packets passed up, count"
scalar ExamTaskNetwork.ConferenceLaptop.udp 	sentPk:count 	24963
attr interpolationmode  none
attr source  sentPk
attr title  "packets sent, count"
scalar ExamTaskNetwork.ConferenceLaptop.udp 	sentPk:sum(packetBytes) 	35147904
attr interpolationmode  none
attr source  sentPk
attr title  "packets sent, sum(packetBytes)"
scalar ExamTaskNetwork.ConferenceLaptop.udp 	rcvdPk:count 	24258
attr interpolationmode  none
attr source  rcvdPk
attr title  "packets received, count"
scalar ExamTaskNetwork.ConferenceLaptop.udp 	rcvdPk:sum(packetBytes) 	34155264
attr interpolationmode  none
attr source  rcvdPk
attr title  "packets received, sum(packetBytes)"
scalar ExamTaskNetwork.FTPLaptop.networkLayer.arp 	initiatedARPResolution:count 	9
attr title  "ARP initiated resolutions, count"
scalar ExamTaskNetwork.FTPLaptop.networkLayer.arp 	sentReply:count 	7
attr title  "ARP replies sent, count"
scalar ExamTaskNetwork.FTPLaptop.networkLayer.arp 	sentReq:count 	9
attr title  "ARP request sent, count"
scalar ExamTaskNetwork.FTPLaptop.networkLayer.arp 	failedARPResolution:count 	0
attr title  "ARP failed resolutions, count"
scalar ExamTaskNetwork.FTPLaptop.networkLayer.arp 	completedARPResolution:count 	141
attr title  "ARP completed resolutions, count"
scalar ExamTaskNetwork.FTPLaptop.lo0.lo 	rcvdPkFromHL:count 	0
attr interpolationmode  none
attr source  packetReceivedFromUpper
attr title  "packets received from higher layer, count"
scalar ExamTaskNetwork.FTPLaptop.lo0.lo 	rcvdPkFromHL:sum(packetBytes) 	0
attr interpolationmode  none
attr source  packetReceivedFromUpper
attr title  "packets received from higher layer, sum(packetBytes)"
scalar ExamTaskNetwork.FTPLaptop.lo0.lo 	passedUpPk:count 	0
attr interpolationmode  none
attr source  packetSentToUpper
attr title  "packets passed to higher layer, count"
scalar ExamTaskNetwork.FTPLaptop.lo0.lo 	passedUpPk:sum(packetBytes) 	0
attr interpolationmode  none
attr source  packetSentToUpper
attr title  "packets passed to higher layer, sum(packetBytes)"
scalar ExamTaskNetwork.FTPLaptop.lo0.lo 	droppedPkBitError:count 	0
attr interpolationmode  none
attr source  dropPkBitError
attr title  "packets dropped/bit error, count"
scalar ExamTaskNetwork.FTPLaptop.lo0.lo 	droppedPkBitError:sum(packetBytes) 	0
attr interpolationmode  none
attr source  dropPkBitError
attr title  "packets dropped/bit error, sum(packetBytes)"
scalar ExamTaskNetwork.FTPLaptop.wlan[0].agent 	dropConfirm:count 	0
attr title  "dropped confirms, count"
scalar ExamTaskNetwork.FTPLaptop.wlan[0].agent 	acceptConfirm:count 	33
attr title  "accepted confirms, count"
scalar ExamTaskNetwork.FTPLaptop.wlan[0].agent 	sentRequest:count 	33
attr title  "sent requests, count"
scalar ExamTaskNetwork.FTPLaptop.wlan[0].mgmt 	dropPkByQueue:count 	2004
attr interpolationmode  none
attr source  dropPkByQueue
attr title  "packets dropped by queue, count"
scalar ExamTaskNetwork.FTPLaptop.wlan[0].mgmt 	dropPkByQueue:sum(packetBytes) 	3102176
attr interpolationmode  none
attr source  dropPkByQueue
attr title  "packets dropped by queue, sum(packetBytes)"
scalar ExamTaskNetwork.FTPLaptop.wlan[0].mgmt 	dataQueueLen:max 	50
attr interpolationmode  sample-hold
attr title  "data queue length, max"
scalar ExamTaskNetwork.FTPLaptop.wlan[0].mgmt 	dataQueueLen:timeavg 	3.7174503669279
attr interpolationmode  sample-hold
attr title  "data queue length, timeavg"
scalar ExamTaskNetwork.FTPLaptop.wlan[0].mac 	"number of received packets" 	357459
scalar ExamTaskNetwork.FTPLaptop.wlan[0].mac 	"number of collisions" 	6031
scalar ExamTaskNetwork.FTPLaptop.wlan[0].mac 	"number of internal collisions" 	0
scalar ExamTaskNetwork.FTPLaptop.wlan[0].mac 	"number of retry for AC 0" 	72820
scalar ExamTaskNetwork.FTPLaptop.wlan[0].mac 	"sent and received bits" 	4731171576
scalar ExamTaskNetwork.FTPLaptop.wlan[0].mac 	"sent packet within AC 0" 	382146
scalar ExamTaskNetwork.FTPLaptop.wlan[0].mac 	"sent in TXOP " 	0
scalar ExamTaskNetwork.FTPLaptop.wlan[0].mac 	"sentWithoutRetry AC 0" 	324448
scalar ExamTaskNetwork.FTPLaptop.wlan[0].mac 	"numGivenUp AC 0" 	2
scalar ExamTaskNetwork.FTPLaptop.wlan[0].mac 	"numDropped AC 0" 	0
scalar ExamTaskNetwork.FTPLaptop.wlan[0].mac 	rcvdPkFromHL:count 	382159
attr interpolationmode  none
attr source  packetReceivedFromUpper
attr title  "packets received from higher layer, count"
scalar ExamTaskNetwork.FTPLaptop.wlan[0].mac 	rcvdPkFromHL:sum(packetBytes) 	591399543
attr interpolationmode  none
attr source  packetReceivedFromUpper
attr title  "packets received from higher layer, sum(packetBytes)"
scalar ExamTaskNetwork.FTPLaptop.wlan[0].mac 	passedUpPk:count 	367156
attr interpolationmode  none
attr source  packetSentToUpper
attr title  "packets passed to higher layer, count"
scalar ExamTaskNetwork.FTPLaptop.wlan[0].mac 	passedUpPk:sum(packetBytes) 	30061710
attr interpolationmode  none
attr source  packetSentToUpper
attr title  "packets passed to higher layer, sum(packetBytes)"
scalar ExamTaskNetwork.FTPLaptop.wlan[0].mac 	rcvdPkFromLL:count 	2869364
attr interpolationmode  none
attr source  packetReceivedFromLower
attr title  "packets received from lower layer, count"
scalar ExamTaskNetwork.FTPLaptop.wlan[0].mac 	rcvdPkFromLL:sum(packetBytes) 	719325820
attr interpolationmode  none
attr source  packetReceivedFromLower
attr title  "packets received from lower layer, sum(packetBytes)"
scalar ExamTaskNetwork.FTPLaptop.wlan[0].mac 	sentDownPk:count 	812438
attr interpolationmode  none
attr source  packetSentToLower
attr title  "packets sent to lower layer, count"
scalar ExamTaskNetwork.FTPLaptop.wlan[0].mac 	sentDownPk:sum(packetBytes) 	709068698
attr interpolationmode  none
attr source  packetSentToLower
attr title  "packets sent to lower layer, sum(packetBytes)"
scalar ExamTaskNetwork.FTPLaptop.wlan[0].radio 	lossRate:min 	0
attr interpolationmode  backward-sample-hold
attr title  "packet loss rate, min"
scalar ExamTaskNetwork.FTPLaptop.wlan[0].radio 	lossRate:max 	0.22
attr interpolationmode  backward-sample-hold
attr title  "packet loss rate, max"
scalar ExamTaskNetwork.FTPLaptop.wlan[0].radio 	lossRate:timeavg 	0.0020316188358772
attr interpolationmode  backward-sample-hold
attr title  "packet loss rate, timeavg"
statistic ExamTaskNetwork.FTPLaptop.wlan[0].radio 	channelNo:histogram
field count 1
field mean 0
field stddev -nan
field sum 0
field sqrsum 0
field min 0
field max 0
attr interpolationmode  sample-hold
attr title  "channel no, histogram"
bin	-INF	0
bin	-0.5	0
bin	-0.46666666666667	0
bin	-0.43333333333333	0
bin	-0.4	0
bin	-0.36666666666667	0
bin	-0.33333333333333	0
bin	-0.3	0
bin	-0.26666666666667	0
bin	-0.23333333333333	0
bin	-0.2	0
bin	-0.16666666666667	0
bin	-0.13333333333333	0
bin	-0.1	0
bin	-0.066666666666667	0
bin	-0.033333333333333	0
bin	0	1
bin	0.033333333333333	0
bin	0.066666666666667	0
bin	0.1	0
bin	0.13333333333333	0
bin	0.16666666666667	0
bin	0.2	0
bin	0.23333333333333	0
bin	0.26666666666667	0
bin	0.3	0
bin	0.33333333333333	0
bin	0.36666666666667	0
bin	0.4	0
bin	0.43333333333333	0
bin	0.46666666666667	0
bin	0.5	0
scalar ExamTaskNetwork.FTPLaptop.wlan[0].radio 	radioState:count 	7407967
attr interpolationmode  sample-hold
attr title  "radio state (enum), count"
scalar ExamTaskNetwork.FTPLaptop.wlan[0].radio 	bitrate:min 	54000000
attr interpolationmode  sample-hold
attr title  "tx bitrate, min"
attr unit  bps
scalar ExamTaskNetwork.FTPLaptop.wlan[0].radio 	bitrate:max 	54000000
attr interpolationmode  sample-hold
attr title  "tx bitrate, max"
attr unit  bps
scalar ExamTaskNetwork.FTPLaptop.wlan[0].radio 	bitrate:timeavg 	54000000
attr interpolationmode  sample-hold
attr title  "tx bitrate, timeavg"
attr unit  bps
scalar ExamTaskNetwork.FTPLaptop.tcpApp[0] 	bytesRcvd 	0
scalar ExamTaskNetwork.FTPLaptop.tcpApp[0] 	bytesSent 	1778384896
scalar ExamTaskNetwork.FTPLaptop.tcpApp[0] 	sentPk:count 	1
attr interpolationmode  none
attr source  sentPk
attr title  "packets sent, count"
scalar ExamTaskNetwork.FTPLaptop.tcpApp[0] 	sentPk:sum(packetBytes) 	1778384896
attr interpolationmode  none
attr source  sentPk
attr title  "packets sent, sum(packetBytes)"
scalar ExamTaskNetwork.FTPLaptop.tcpApp[0] 	rcvdPk:count 	0
attr interpolationmode  none
attr source  rcvdPk
attr title  "packets received, count"
scalar ExamTaskNetwork.FTPLaptop.tcpApp[0] 	rcvdPk:sum(packetBytes) 	0
attr interpolationmode  none
attr source  rcvdPk
attr title  "packets received, sum(packetBytes)"
statistic ExamTaskNetwork.FTPLaptop.tcpApp[0] 	endToEndDelay:histogram
field count 0
field mean -nan
field stddev -nan
field sum 0
field sqrsum 0
field min -nan
field max -nan
attr interpolationmode  none
attr source  messageAge(rcvdPk)
attr title  "end-to-end delay, histogram"
attr unit  s
bin	-INF	0
bin	-0.5	0
bin	-0.46666666666667	0
bin	-0.43333333333333	0
bin	-0.4	0
bin	-0.36666666666667	0
bin	-0.33333333333333	0
bin	-0.3	0
bin	-0.26666666666667	0
bin	-0.23333333333333	0
bin	-0.2	0
bin	-0.16666666666667	0
bin	-0.13333333333333	0
bin	-0.1	0
bin	-0.066666666666667	0
bin	-0.033333333333333	0
bin	0	0
bin	0.033333333333333	0
bin	0.066666666666667	0
bin	0.1	0
bin	0.13333333333333	0
bin	0.16666666666667	0
bin	0.2	0
bin	0.23333333333333	0
bin	0.26666666666667	0
bin	0.3	0
bin	0.33333333333333	0
bin	0.36666666666667	0
bin	0.4	0
bin	0.43333333333333	0
bin	0.46666666666667	0
bin	0.5	0
scalar ExamTaskNetwork.BrowsingLaptop[0].networkLayer.arp 	initiatedARPResolution:count 	7
attr title  "ARP initiated resolutions, count"
scalar ExamTaskNetwork.BrowsingLaptop[0].networkLayer.arp 	sentReply:count 	1
attr title  "ARP replies sent, count"
scalar ExamTaskNetwork.BrowsingLaptop[0].networkLayer.arp 	sentReq:count 	7
attr title  "ARP request sent, count"
scalar ExamTaskNetwork.BrowsingLaptop[0].networkLayer.arp 	failedARPResolution:count 	0
attr title  "ARP failed resolutions, count"
scalar ExamTaskNetwork.BrowsingLaptop[0].networkLayer.arp 	completedARPResolution:count 	24
attr title  "ARP completed resolutions, count"
scalar ExamTaskNetwork.BrowsingLaptop[0].lo0.lo 	rcvdPkFromHL:count 	0
attr interpolationmode  none
attr source  packetReceivedFromUpper
attr title  "packets received from higher layer, count"
scalar ExamTaskNetwork.BrowsingLaptop[0].lo0.lo 	rcvdPkFromHL:sum(packetBytes) 	0
attr interpolationmode  none
attr source  packetReceivedFromUpper
attr title  "packets received from higher layer, sum(packetBytes)"
scalar ExamTaskNetwork.BrowsingLaptop[0].lo0.lo 	passedUpPk:count 	0
attr interpolationmode  none
attr source  packetSentToUpper
attr title  "packets passed to higher layer, count"
scalar ExamTaskNetwork.BrowsingLaptop[0].lo0.lo 	passedUpPk:sum(packetBytes) 	0
attr interpolationmode  none
attr source  packetSentToUpper
attr title  "packets passed to higher layer, sum(packetBytes)"
scalar ExamTaskNetwork.BrowsingLaptop[0].lo0.lo 	droppedPkBitError:count 	0
attr interpolationmode  none
attr source  dropPkBitError
attr title  "packets dropped/bit error, count"
scalar ExamTaskNetwork.BrowsingLaptop[0].lo0.lo 	droppedPkBitError:sum(packetBytes) 	0
attr interpolationmode  none
attr source  dropPkBitError
attr title  "packets dropped/bit error, sum(packetBytes)"
scalar ExamTaskNetwork.BrowsingLaptop[0].wlan[0].agent 	dropConfirm:count 	0
attr title  "dropped confirms, count"
scalar ExamTaskNetwork.BrowsingLaptop[0].wlan[0].agent 	acceptConfirm:count 	33
attr title  "accepted confirms, count"
scalar ExamTaskNetwork.BrowsingLaptop[0].wlan[0].agent 	sentRequest:count 	33
attr title  "sent requests, count"
scalar ExamTaskNetwork.BrowsingLaptop[0].wlan[0].mgmt 	dropPkByQueue:count 	0
attr interpolationmode  none
attr source  dropPkByQueue
attr title  "packets dropped by queue, count"
scalar ExamTaskNetwork.BrowsingLaptop[0].wlan[0].mgmt 	dropPkByQueue:sum(packetBytes) 	0
attr interpolationmode  none
attr source  dropPkByQueue
attr title  "packets dropped by queue, sum(packetBytes)"
scalar ExamTaskNetwork.BrowsingLaptop[0].wlan[0].mgmt 	dataQueueLen:max 	0
attr interpolationmode  sample-hold
attr title  "data queue length, max"
scalar ExamTaskNetwork.BrowsingLaptop[0].wlan[0].mgmt 	dataQueueLen:timeavg 	0
attr interpolationmode  sample-hold
attr title  "data queue length, timeavg"
scalar ExamTaskNetwork.BrowsingLaptop[0].wlan[0].mac 	"number of received packets" 	24754
scalar ExamTaskNetwork.BrowsingLaptop[0].wlan[0].mac 	"number of collisions" 	46102
scalar ExamTaskNetwork.BrowsingLaptop[0].wlan[0].mac 	"number of internal collisions" 	0
scalar ExamTaskNetwork.BrowsingLaptop[0].wlan[0].mac 	"number of retry for AC 0" 	80
scalar ExamTaskNetwork.BrowsingLaptop[0].wlan[0].mac 	"sent and received bits" 	9528656
scalar ExamTaskNetwork.BrowsingLaptop[0].wlan[0].mac 	"sent packet within AC 0" 	11982
scalar ExamTaskNetwork.BrowsingLaptop[0].wlan[0].mac 	"sent in TXOP " 	0
scalar ExamTaskNetwork.BrowsingLaptop[0].wlan[0].mac 	"sentWithoutRetry AC 0" 	11928
scalar ExamTaskNetwork.BrowsingLaptop[0].wlan[0].mac 	"numGivenUp AC 0" 	0
scalar ExamTaskNetwork.BrowsingLaptop[0].wlan[0].mac 	"numDropped AC 0" 	0
scalar ExamTaskNetwork.BrowsingLaptop[0].wlan[0].mac 	rcvdPkFromHL:count 	11993
attr interpolationmode  none
attr source  packetReceivedFromUpper
attr title  "packets received from higher layer, count"
scalar ExamTaskNetwork.BrowsingLaptop[0].wlan[0].mac 	rcvdPkFromHL:sum(packetBytes) 	1191082
attr interpolationmode  none
attr source  packetReceivedFromUpper
attr title  "packets received from higher layer, sum(packetBytes)"
scalar ExamTaskNetwork.BrowsingLaptop[0].wlan[0].mac 	passedUpPk:count 	34454
attr interpolationmode  none
attr source  packetSentToUpper
attr title  "packets passed to higher layer, count"
scalar ExamTaskNetwork.BrowsingLaptop[0].wlan[0].mac 	passedUpPk:sum(packetBytes) 	21442974
attr interpolationmode  none
attr source  packetSentToUpper
attr title  "packets passed to higher layer, sum(packetBytes)"
scalar ExamTaskNetwork.BrowsingLaptop[0].wlan[0].mac 	rcvdPkFromLL:count 	3644975
attr interpolationmode  none
attr source  packetReceivedFromLower
attr title  "packets received from lower layer, count"
scalar ExamTaskNetwork.BrowsingLaptop[0].wlan[0].mac 	rcvdPkFromLL:sum(packetBytes) 	1392215451
attr interpolationmode  none
attr source  packetReceivedFromLower
attr title  "packets received from lower layer, sum(packetBytes)"
scalar ExamTaskNetwork.BrowsingLaptop[0].wlan[0].mac 	sentDownPk:count 	36827
attr interpolationmode  none
attr source  packetSentToLower
attr title  "packets sent to lower layer, count"
scalar ExamTaskNetwork.BrowsingLaptop[0].wlan[0].mac 	sentDownPk:sum(packetBytes) 	1577990
attr interpolationmode  none
attr source  packetSentToLower
attr title  "packets sent to lower layer, sum(packetBytes)"
scalar ExamTaskNetwork.BrowsingLaptop[0].wlan[0].radio 	lossRate:min 	0
attr interpolationmode  backward-sample-hold
attr title  "packet loss rate, min"
scalar ExamTaskNetwork.BrowsingLaptop[0].wlan[0].radio 	lossRate:max 	0.2
attr interpolationmode  backward-sample-hold
attr title  "packet loss rate, max"
scalar ExamTaskNetwork.BrowsingLaptop[0].wlan[0].radio 	lossRate:timeavg 	0.012315620928607
attr interpolationmode  backward-sample-hold
attr title  "packet loss rate, timeavg"
statistic ExamTaskNetwork.BrowsingLaptop[0].wlan[0].radio 	channelNo:histogram
field count 1
field mean 0
field stddev -nan
field sum 0
field sqrsum 0
field min 0
field max 0
attr interpolationmode  sample-hold
attr title  "channel no, histogram"
bin	-INF	0
bin	-0.5	0
bin	-0.46666666666667	0
bin	-0.43333333333333	0
bin	-0.4	0
bin	-0.36666666666667	0
bin	-0.33333333333333	0
bin	-0.3	0
bin	-0.26666666666667	0
bin	-0.23333333333333	0
bin	-0.2	0
bin	-0.16666666666667	0
bin	-0.13333333333333	0
bin	-0.1	0
bin	-0.066666666666667	0
bin	-0.033333333333333	0
bin	0	1
bin	0.033333333333333	0
bin	0.066666666666667	0
bin	0.1	0
bin	0.13333333333333	0
bin	0.16666666666667	0
bin	0.2	0
bin	0.23333333333333	0
bin	0.26666666666667	0
bin	0.3	0
bin	0.33333333333333	0
bin	0.36666666666667	0
bin	0.4	0
bin	0.43333333333333	0
bin	0.46666666666667	0
bin	0.5	0
scalar ExamTaskNetwork.BrowsingLaptop[0].wlan[0].radio 	radioState:count 	7363697
attr interpolationmode  sample-hold
attr title  "radio state (enum), count"
scalar ExamTaskNetwork.BrowsingLaptop[0].wlan[0].radio 	bitrate:min 	54000000
attr interpolationmode  sample-hold
attr title  "tx bitrate, min"
attr unit  bps
scalar ExamTaskNetwork.BrowsingLaptop[0].wlan[0].radio 	bitrate:max 	54000000
attr interpolationmode  sample-hold
attr title  "tx bitrate, max"
attr unit  bps
scalar ExamTaskNetwork.BrowsingLaptop[0].wlan[0].radio 	bitrate:timeavg 	54000000
attr interpolationmode  sample-hold
attr title  "tx bitrate, timeavg"
attr unit  bps
scalar ExamTaskNetwork.BrowsingLaptop[0].tcpApp[0] 	numActiveSessions:max 	1
attr interpolationmode  sample-hold
attr source  sum(connect)
attr title  "number of active sessions, max"
scalar ExamTaskNetwork.BrowsingLaptop[0].tcpApp[0] 	numActiveSessions:timeavg 	0.5730243489914
attr interpolationmode  sample-hold
attr source  sum(connect)
attr title  "number of active sessions, timeavg"
scalar ExamTaskNetwork.BrowsingLaptop[0].tcpApp[0] 	numSessions:last 	25
attr source  sum(connect+1)/2
attr title  "total number of sessions, last"
scalar ExamTaskNetwork.BrowsingLaptop[0].tcpApp[0] 	sentPk:count 	25
attr interpolationmode  none
attr source  sentPk
attr title  "packets sent, count"
scalar ExamTaskNetwork.BrowsingLaptop[0].tcpApp[0] 	sentPk:sum(packetBytes) 	204800
attr interpolationmode  none
attr source  sentPk
attr title  "packets sent, sum(packetBytes)"
scalar ExamTaskNetwork.BrowsingLaptop[0].tcpApp[0] 	rcvdPk:count 	25
attr interpolationmode  none
attr source  rcvdPk
attr title  "packets received, count"
scalar ExamTaskNetwork.BrowsingLaptop[0].tcpApp[0] 	rcvdPk:sum(packetBytes) 	16214261
attr interpolationmode  none
attr source  rcvdPk
attr title  "packets received, sum(packetBytes)"
statistic ExamTaskNetwork.BrowsingLaptop[0].tcpApp[0] 	endToEndDelay:histogram
field count 25
field mean 22.289005633947
field stddev 30.365242957138
field sum 557.22514084868
field sqrsum 34549.145820058
field min 0.747010501557
field max 138.78665536253
attr interpolationmode  none
attr source  messageAge(rcvdPk)
attr title  "end-to-end delay, histogram"
attr unit  s
bin	-INF	0
bin	-68.272811928931	0
bin	-59.0701689382	0
bin	-49.867525947468	0
bin	-40.664882956736	0
bin	-31.462239966004	0
bin	-22.259596975272	0
bin	-13.056953984541	0
bin	-3.8543109938089	7
bin	5.3483319969229	5
bin	14.550974987655	6
bin	23.753617978387	2
bin	32.956260969118	3
bin	42.15890395985	0
bin	51.361546950582	0
bin	60.564189941314	0
bin	69.766832932046	0
bin	78.969475922777	1
bin	88.172118913509	0
bin	97.374761904241	0
bin	106.57740489497	0
bin	115.7800478857	0
bin	124.98269087644	0
bin	134.18533386717	1
bin	143.3879768579	0
bin	152.59061984863	0
bin	161.79326283936	0
bin	170.9959058301	0
bin	180.19854882083	0
bin	189.40119181156	0
bin	198.60383480229	0
bin	207.80647779302	0
scalar ExamTaskNetwork.BrowsingLaptop[1].networkLayer.arp 	initiatedARPResolution:count 	8
attr title  "ARP initiated resolutions, count"
scalar ExamTaskNetwork.BrowsingLaptop[1].networkLayer.arp 	sentReply:count 	2
attr title  "ARP replies sent, count"
scalar ExamTaskNetwork.BrowsingLaptop[1].networkLayer.arp 	sentReq:count 	8
attr title  "ARP request sent, count"
scalar ExamTaskNetwork.BrowsingLaptop[1].networkLayer.arp 	failedARPResolution:count 	0
attr title  "ARP failed resolutions, count"
scalar ExamTaskNetwork.BrowsingLaptop[1].networkLayer.arp 	completedARPResolution:count 	121
attr title  "ARP completed resolutions, count"
scalar ExamTaskNetwork.BrowsingLaptop[1].lo0.lo 	rcvdPkFromHL:count 	0
attr interpolationmode  none
attr source  packetReceivedFromUpper
attr title  "packets received from higher layer, count"
scalar ExamTaskNetwork.BrowsingLaptop[1].lo0.lo 	rcvdPkFromHL:sum(packetBytes) 	0
attr interpolationmode  none
attr source  packetReceivedFromUpper
attr title  "packets received from higher layer, sum(packetBytes)"
scalar ExamTaskNetwork.BrowsingLaptop[1].lo0.lo 	passedUpPk:count 	0
attr interpolationmode  none
attr source  packetSentToUpper
attr title  "packets passed to higher layer, count"
scalar ExamTaskNetwork.BrowsingLaptop[1].lo0.lo 	passedUpPk:sum(packetBytes) 	0
attr interpolationmode  none
attr source  packetSentToUpper
attr title  "packets passed to higher layer, sum(packetBytes)"
scalar ExamTaskNetwork.BrowsingLaptop[1].lo0.lo 	droppedPkBitError:count 	0
attr interpolationmode  none
attr source  dropPkBitError
attr title  "packets dropped/bit error, count"
scalar ExamTaskNetwork.BrowsingLaptop[1].lo0.lo 	droppedPkBitError:sum(packetBytes) 	0
attr interpolationmode  none
attr source  dropPkBitError
attr title  "packets dropped/bit error, sum(packetBytes)"
scalar ExamTaskNetwork.BrowsingLaptop[1].wlan[0].agent 	dropConfirm:count 	0
attr title  "dropped confirms, count"
scalar ExamTaskNetwork.BrowsingLaptop[1].wlan[0].agent 	acceptConfirm:count 	33
attr title  "accepted confirms, count"
scalar ExamTaskNetwork.BrowsingLaptop[1].wlan[0].agent 	sentRequest:count 	33
attr title  "sent requests, count"
scalar ExamTaskNetwork.BrowsingLaptop[1].wlan[0].mgmt 	dropPkByQueue:count 	136
attr interpolationmode  none
attr source  dropPkByQueue
attr title  "packets dropped by queue, count"
scalar ExamTaskNetwork.BrowsingLaptop[1].wlan[0].mgmt 	dropPkByQueue:sum(packetBytes) 	13326
attr interpolationmode  none
attr source  dropPkByQueue
attr title  "packets dropped by queue, sum(packetBytes)"
scalar ExamTaskNetwork.BrowsingLaptop[1].wlan[0].mgmt 	dataQueueLen:max 	50
attr interpolationmode  sample-hold
attr title  "data queue length, max"
scalar ExamTaskNetwork.BrowsingLaptop[1].wlan[0].mgmt 	dataQueueLen:timeavg 	0.012398909558134
attr interpolationmode  sample-hold
attr title  "data queue length, timeavg"
scalar ExamTaskNetwork.BrowsingLaptop[1].wlan[0].mac 	"number of received packets" 	21592
scalar ExamTaskNetwork.BrowsingLaptop[1].wlan[0].mac 	"number of collisions" 	46862
scalar ExamTaskNetwork.BrowsingLaptop[1].wlan[0].mac 	"number of internal collisions" 	0
scalar ExamTaskNetwork.BrowsingLaptop[1].wlan[0].mac 	"number of retry for AC 0" 	257
scalar ExamTaskNetwork.BrowsingLaptop[1].wlan[0].mac 	"sent and received bits" 	9125040
scalar ExamTaskNetwork.BrowsingLaptop[1].wlan[0].mac 	"sent packet within AC 0" 	11283
scalar ExamTaskNetwork.BrowsingLaptop[1].wlan[0].mac 	"sent in TXOP " 	0
scalar ExamTaskNetwork.BrowsingLaptop[1].wlan[0].mac 	"sentWithoutRetry AC 0" 	11077
scalar ExamTaskNetwork.BrowsingLaptop[1].wlan[0].mac 	"numGivenUp AC 0" 	0
scalar ExamTaskNetwork.BrowsingLaptop[1].wlan[0].mac 	"numDropped AC 0" 	0
scalar ExamTaskNetwork.BrowsingLaptop[1].wlan[0].mac 	rcvdPkFromHL:count 	11294
attr interpolationmode  none
attr source  packetReceivedFromUpper
attr title  "packets received from higher layer, count"
scalar ExamTaskNetwork.BrowsingLaptop[1].wlan[0].mac 	rcvdPkFromHL:sum(packetBytes) 	1140630
attr interpolationmode  none
attr source  packetReceivedFromUpper
attr title  "packets received from higher layer, sum(packetBytes)"
scalar ExamTaskNetwork.BrowsingLaptop[1].wlan[0].mac 	passedUpPk:count 	31293
attr interpolationmode  none
attr source  packetSentToUpper
attr title  "packets passed to higher layer, count"
scalar ExamTaskNetwork.BrowsingLaptop[1].wlan[0].mac 	passedUpPk:sum(packetBytes) 	18658246
attr interpolationmode  none
attr source  packetSentToUpper
attr title  "packets passed to higher layer, sum(packetBytes)"
scalar ExamTaskNetwork.BrowsingLaptop[1].wlan[0].mac 	rcvdPkFromLL:count 	3648659
attr interpolationmode  none
attr source  packetReceivedFromLower
attr title  "packets received from lower layer, count"
scalar ExamTaskNetwork.BrowsingLaptop[1].wlan[0].mac 	rcvdPkFromLL:sum(packetBytes) 	1391727102
attr interpolationmode  none
attr source  packetReceivedFromLower
attr title  "packets received from lower layer, sum(packetBytes)"
scalar ExamTaskNetwork.BrowsingLaptop[1].wlan[0].mac 	sentDownPk:count 	33143
attr interpolationmode  none
attr source  packetSentToLower
attr title  "packets sent to lower layer, count"
scalar ExamTaskNetwork.BrowsingLaptop[1].wlan[0].mac 	sentDownPk:sum(packetBytes) 	1509952
attr interpolationmode  none
attr source  packetSentToLower
attr title  "packets sent to lower layer, sum(packetBytes)"
scalar ExamTaskNetwork.BrowsingLaptop[1].wlan[0].radio 	lossRate:min 	0
attr interpolationmode  backward-sample-hold
attr title  "packet loss rate, min"
scalar ExamTaskNetwork.BrowsingLaptop[1].wlan[0].radio 	lossRate:max 	0.2
attr interpolationmode  backward-sample-hold
attr title  "packet loss rate, max"
scalar ExamTaskNetwork.BrowsingLaptop[1].wlan[0].radio 	lossRate:timeavg 	0.012518671627275
attr interpolationmode  backward-sample-hold
attr title  "packet loss rate, timeavg"
statistic ExamTaskNetwork.BrowsingLaptop[1].wlan[0].radio 	channelNo:histogram
field count 1
field mean 0
field stddev -nan
field sum 0
field sqrsum 0
field min 0
field max 0
attr interpolationmode  sample-hold
attr title  "channel no, histogram"
bin	-INF	0
bin	-0.5	0
bin	-0.46666666666667	0
bin	-0.43333333333333	0
bin	-0.4	0
bin	-0.36666666666667	0
bin	-0.33333333333333	0
bin	-0.3	0
bin	-0.26666666666667	0
bin	-0.23333333333333	0
bin	-0.2	0
bin	-0.16666666666667	0
bin	-0.13333333333333	0
bin	-0.1	0
bin	-0.066666666666667	0
bin	-0.033333333333333	0
bin	0	1
bin	0.033333333333333	0
bin	0.066666666666667	0
bin	0.1	0
bin	0.13333333333333	0
bin	0.16666666666667	0
bin	0.2	0
bin	0.23333333333333	0
bin	0.26666666666667	0
bin	0.3	0
bin	0.33333333333333	0
bin	0.36666666666667	0
bin	0.4	0
bin	0.43333333333333	0
bin	0.46666666666667	0
bin	0.5	0
scalar ExamTaskNetwork.BrowsingLaptop[1].wlan[0].radio 	radioState:count 	7363931
attr interpolationmode  sample-hold
attr title  "radio state (enum), count"
scalar ExamTaskNetwork.BrowsingLaptop[1].wlan[0].radio 	bitrate:min 	54000000
attr interpolationmode  sample-hold
attr title  "tx bitrate, min"
attr unit  bps
scalar ExamTaskNetwork.BrowsingLaptop[1].wlan[0].radio 	bitrate:max 	54000000
attr interpolationmode  sample-hold
attr title  "tx bitrate, max"
attr unit  bps
scalar ExamTaskNetwork.BrowsingLaptop[1].wlan[0].radio 	bitrate:timeavg 	54000000
attr interpolationmode  sample-hold
attr title  "tx bitrate, timeavg"
attr unit  bps
scalar ExamTaskNetwork.BrowsingLaptop[1].tcpApp[0] 	numActiveSessions:max 	1
attr interpolationmode  sample-hold
attr source  sum(connect)
attr title  "number of active sessions, max"
scalar ExamTaskNetwork.BrowsingLaptop[1].tcpApp[0] 	numActiveSessions:timeavg 	0.5102874364268
attr interpolationmode  sample-hold
attr source  sum(connect)
attr title  "number of active sessions, timeavg"
scalar ExamTaskNetwork.BrowsingLaptop[1].tcpApp[0] 	numSessions:last 	24
attr source  sum(connect+1)/2
attr title  "total number of sessions, last"
scalar ExamTaskNetwork.BrowsingLaptop[1].tcpApp[0] 	sentPk:count 	24
attr interpolationmode  none
attr source  sentPk
attr title  "packets sent, count"
scalar ExamTaskNetwork.BrowsingLaptop[1].tcpApp[0] 	sentPk:sum(packetBytes) 	196608
attr interpolationmode  none
attr source  sentPk
attr title  "packets sent, sum(packetBytes)"
scalar ExamTaskNetwork.BrowsingLaptop[1].tcpApp[0] 	rcvdPk:count 	24
attr interpolationmode  none
attr source  rcvdPk
attr title  "packets received, count"
scalar ExamTaskNetwork.BrowsingLaptop[1].tcpApp[0] 	rcvdPk:sum(packetBytes) 	14308567
attr interpolationmode  none
attr source  rcvdPk
attr title  "packets received, sum(packetBytes)"
statistic ExamTaskNetwork.BrowsingLaptop[1].tcpApp[0] 	endToEndDelay:histogram
field count 24
field mean 20.736908270889
field stddev 13.556631636067
field sum 497.68579850134
field sqrsum 14547.456761515
field min 5.055677916356
field max 58.512818396456
attr interpolationmode  none
attr source  messageAge(rcvdPk)
attr title  "end-to-end delay, histogram"
attr unit  s
bin	-INF	0
bin	-21.672892323694	0
bin	-18.109082958354	0
bin	-14.545273593014	0
bin	-10.981464227674	0
bin	-7.417654862334	0
bin	-3.853845496994	0
bin	-0.29003613165399	0
bin	3.273773233686	1
bin	6.837582599026	5
bin	10.401391964366	3
bin	13.965201329706	4
bin	17.529010695046	2
bin	21.092820060386	2
bin	24.656629425726	2
bin	28.220438791066	1
bin	31.784248156406	1
bin	35.348057521746	1
bin	38.911866887086	0
bin	42.475676252426	0
bin	46.039485617766	0
bin	49.603294983106	1
bin	53.167104348446	0
bin	56.730913713786	1
bin	60.294723079126	0
bin	63.858532444466	0
bin	67.422341809806	0
bin	70.986151175146	0
bin	74.549960540486	0
bin	78.113769905826	0
bin	81.677579271166	0
bin	85.241388636506	0
scalar ExamTaskNetwork.BrowsingLaptop[2].networkLayer.arp 	initiatedARPResolution:count 	8
attr title  "ARP initiated resolutions, count"
scalar ExamTaskNetwork.BrowsingLaptop[2].networkLayer.arp 	sentReply:count 	3
attr title  "ARP replies sent, count"
scalar ExamTaskNetwork.BrowsingLaptop[2].networkLayer.arp 	sentReq:count 	8
attr title  "ARP request sent, count"
scalar ExamTaskNetwork.BrowsingLaptop[2].networkLayer.arp 	failedARPResolution:count 	0
attr title  "ARP failed resolutions, count"
scalar ExamTaskNetwork.BrowsingLaptop[2].networkLayer.arp 	completedARPResolution:count 	111
attr title  "ARP completed resolutions, count"
scalar ExamTaskNetwork.BrowsingLaptop[2].lo0.lo 	rcvdPkFromHL:count 	0
attr interpolationmode  none
attr source  packetReceivedFromUpper
attr title  "packets received from higher layer, count"
scalar ExamTaskNetwork.BrowsingLaptop[2].lo0.lo 	rcvdPkFromHL:sum(packetBytes) 	0
attr interpolationmode  none
attr source  packetReceivedFromUpper
attr title  "packets received from higher layer, sum(packetBytes)"
scalar ExamTaskNetwork.BrowsingLaptop[2].lo0.lo 	passedUpPk:count 	0
attr interpolationmode  none
attr source  packetSentToUpper
attr title  "packets passed to higher layer, count"
scalar ExamTaskNetwork.BrowsingLaptop[2].lo0.lo 	passedUpPk:sum(packetBytes) 	0
attr interpolationmode  none
attr source  packetSentToUpper
attr title  "packets passed to higher layer, sum(packetBytes)"
scalar ExamTaskNetwork.BrowsingLaptop[2].lo0.lo 	droppedPkBitError:count 	0
attr interpolationmode  none
attr source  dropPkBitError
attr title  "packets dropped/bit error, count"
scalar ExamTaskNetwork.BrowsingLaptop[2].lo0.lo 	droppedPkBitError:sum(packetBytes) 	0
attr interpolationmode  none
attr source  dropPkBitError
attr title  "packets dropped/bit error, sum(packetBytes)"
scalar ExamTaskNetwork.BrowsingLaptop[2].wlan[0].agent 	dropConfirm:count 	0
attr title  "dropped confirms, count"
scalar ExamTaskNetwork.BrowsingLaptop[2].wlan[0].agent 	acceptConfirm:count 	33
attr title  "accepted confirms, count"
scalar ExamTaskNetwork.BrowsingLaptop[2].wlan[0].agent 	sentRequest:count 	33
attr title  "sent requests, count"
scalar ExamTaskNetwork.BrowsingLaptop[2].wlan[0].mgmt 	dropPkByQueue:count 	0
attr interpolationmode  none
attr source  dropPkByQueue
attr title  "packets dropped by queue, count"
scalar ExamTaskNetwork.BrowsingLaptop[2].wlan[0].mgmt 	dropPkByQueue:sum(packetBytes) 	0
attr interpolationmode  none
attr source  dropPkByQueue
attr title  "packets dropped by queue, sum(packetBytes)"
scalar ExamTaskNetwork.BrowsingLaptop[2].wlan[0].mgmt 	dataQueueLen:max 	4
attr interpolationmode  sample-hold
attr title  "data queue length, max"
scalar ExamTaskNetwork.BrowsingLaptop[2].wlan[0].mgmt 	dataQueueLen:timeavg 	1.791415343505e-05
attr interpolationmode  sample-hold
attr title  "data queue length, timeavg"
scalar ExamTaskNetwork.BrowsingLaptop[2].wlan[0].mac 	"number of received packets" 	23435
scalar ExamTaskNetwork.BrowsingLaptop[2].wlan[0].mac 	"number of collisions" 	46085
scalar ExamTaskNetwork.BrowsingLaptop[2].wlan[0].mac 	"number of internal collisions" 	0
scalar ExamTaskNetwork.BrowsingLaptop[2].wlan[0].mac 	"number of retry for AC 0" 	82
scalar ExamTaskNetwork.BrowsingLaptop[2].wlan[0].mac 	"sent and received bits" 	8953808
scalar ExamTaskNetwork.BrowsingLaptop[2].wlan[0].mac 	"sent packet within AC 0" 	11381
scalar ExamTaskNetwork.BrowsingLaptop[2].wlan[0].mac 	"sent in TXOP " 	0
scalar ExamTaskNetwork.BrowsingLaptop[2].wlan[0].mac 	"sentWithoutRetry AC 0" 	11327
scalar ExamTaskNetwork.BrowsingLaptop[2].wlan[0].mac 	"numGivenUp AC 0" 	0
scalar ExamTaskNetwork.BrowsingLaptop[2].wlan[0].mac 	"numDropped AC 0" 	0
scalar ExamTaskNetwork.BrowsingLaptop[2].wlan[0].mac 	rcvdPkFromHL:count 	11392
attr interpolationmode  none
attr source  packetReceivedFromUpper
attr title  "packets received from higher layer, count"
scalar ExamTaskNetwork.BrowsingLaptop[2].wlan[0].mac 	rcvdPkFromHL:sum(packetBytes) 	1119226
attr interpolationmode  none
attr source  packetReceivedFromUpper
attr title  "packets received from higher layer, sum(packetBytes)"
scalar ExamTaskNetwork.BrowsingLaptop[2].wlan[0].mac 	passedUpPk:count 	33134
attr interpolationmode  none
attr source  packetSentToUpper
attr title  "packets passed to higher layer, count"
scalar ExamTaskNetwork.BrowsingLaptop[2].wlan[0].mac 	passedUpPk:sum(packetBytes) 	20313968
attr interpolationmode  none
attr source  packetSentToUpper
attr title  "packets passed to higher layer, sum(packetBytes)"
scalar ExamTaskNetwork.BrowsingLaptop[2].wlan[0].mac 	rcvdPkFromLL:count 	3646893
attr interpolationmode  none
attr source  packetReceivedFromLower
attr title  "packets received from lower layer, count"
scalar ExamTaskNetwork.BrowsingLaptop[2].wlan[0].mac 	rcvdPkFromLL:sum(packetBytes) 	1392299262
attr interpolationmode  none
attr source  packetReceivedFromLower
attr title  "packets received from lower layer, sum(packetBytes)"
scalar ExamTaskNetwork.BrowsingLaptop[2].wlan[0].mac 	sentDownPk:count 	34909
attr interpolationmode  none
attr source  packetSentToLower
attr title  "packets sent to lower layer, count"
scalar ExamTaskNetwork.BrowsingLaptop[2].wlan[0].mac 	sentDownPk:sum(packetBytes) 	1491312
attr interpolationmode  none
attr source  packetSentToLower
attr title  "packets sent to lower layer, sum(packetBytes)"
scalar ExamTaskNetwork.BrowsingLaptop[2].wlan[0].radio 	lossRate:min 	0
attr interpolationmode  backward-sample-hold
attr title  "packet loss rate, min"
scalar ExamTaskNetwork.BrowsingLaptop[2].wlan[0].radio 	lossRate:max 	0.22
attr interpolationmode  backward-sample-hold
attr title  "packet loss rate, max"
scalar ExamTaskNetwork.BrowsingLaptop[2].wlan[0].radio 	lossRate:timeavg 	0.012309335841278
attr interpolationmode  backward-sample-hold
attr title  "packet loss rate, timeavg"
statistic ExamTaskNetwork.BrowsingLaptop[2].wlan[0].radio 	channelNo:histogram
field count 1
field mean 0
field stddev -nan
field sum 0
field sqrsum 0
field min 0
field max 0
attr interpolationmode  sample-hold
attr title  "channel no, histogram"
bin	-INF	0
bin	-0.5	0
bin	-0.46666666666667	0
bin	-0.43333333333333	0
bin	-0.4	0
bin	-0.36666666666667	0
bin	-0.33333333333333	0
bin	-0.3	0
bin	-0.26666666666667	0
bin	-0.23333333333333	0
bin	-0.2	0
bin	-0.16666666666667	0
bin	-0.13333333333333	0
bin	-0.1	0
bin	-0.066666666666667	0
bin	-0.033333333333333	0
bin	0	1
bin	0.033333333333333	0
bin	0.066666666666667	0
bin	0.1	0
bin	0.13333333333333	0
bin	0.16666666666667	0
bin	0.2	0
bin	0.23333333333333	0
bin	0.26666666666667	0
bin	0.3	0
bin	0.33333333333333	0
bin	0.36666666666667	0
bin	0.4	0
bin	0.43333333333333	0
bin	0.46666666666667	0
bin	0.5	0
scalar ExamTaskNetwork.BrowsingLaptop[2].wlan[0].radio 	radioState:count 	7363702
attr interpolationmode  sample-hold
attr title  "radio state (enum), count"
scalar ExamTaskNetwork.BrowsingLaptop[2].wlan[0].radio 	bitrate:min 	54000000
attr interpolationmode  sample-hold
attr title  "tx bitrate, min"
attr unit  bps
scalar ExamTaskNetwork.BrowsingLaptop[2].wlan[0].radio 	bitrate:max 	54000000
attr interpolationmode  sample-hold
attr title  "tx bitrate, max"
attr unit  bps
scalar ExamTaskNetwork.BrowsingLaptop[2].wlan[0].radio 	bitrate:timeavg 	54000000
attr interpolationmode  sample-hold
attr title  "tx bitrate, timeavg"
attr unit  bps
scalar ExamTaskNetwork.BrowsingLaptop[2].tcpApp[0] 	numActiveSessions:max 	1
attr interpolationmode  sample-hold
attr source  sum(connect)
attr title  "number of active sessions, max"
scalar ExamTaskNetwork.BrowsingLaptop[2].tcpApp[0] 	numActiveSessions:timeavg 	0.53266539050201
attr interpolationmode  sample-hold
attr source  sum(connect)
attr title  "number of active sessions, timeavg"
scalar ExamTaskNetwork.BrowsingLaptop[2].tcpApp[0] 	numSessions:last 	23
attr source  sum(connect+1)/2
attr title  "total number of sessions, last"
scalar ExamTaskNetwork.BrowsingLaptop[2].tcpApp[0] 	sentPk:count 	23
attr interpolationmode  none
attr source  sentPk
attr title  "packets sent, count"
scalar ExamTaskNetwork.BrowsingLaptop[2].tcpApp[0] 	sentPk:sum(packetBytes) 	188416
attr interpolationmode  none
attr source  sentPk
attr title  "packets sent, sum(packetBytes)"
scalar ExamTaskNetwork.BrowsingLaptop[2].tcpApp[0] 	rcvdPk:count 	22
attr interpolationmode  none
attr source  rcvdPk
attr title  "packets received, count"
scalar ExamTaskNetwork.BrowsingLaptop[2].tcpApp[0] 	rcvdPk:sum(packetBytes) 	15417010
attr interpolationmode  none
attr source  rcvdPk
attr title  "packets received, sum(packetBytes)"
statistic ExamTaskNetwork.BrowsingLaptop[2].tcpApp[0] 	endToEndDelay:histogram
field count 22
field mean 23.636388961159
field stddev 16.494404724
field sum 520.00055714549
field sqrsum 18004.308559891
field min 0.876753567498
field max 58.225242920023
attr interpolationmode  none
attr source  messageAge(rcvdPk)
attr title  "end-to-end delay, histogram"
attr unit  s
bin	-INF	0
bin	-27.797491108765	0
bin	-23.974258485263	0
bin	-20.151025861761	0
bin	-16.32779323826	0
bin	-12.504560614758	0
bin	-8.6813279912562	0
bin	-4.8580953677545	0
bin	-1.0348627442528	1
bin	2.7883698792488	3
bin	6.6116025027505	2
bin	10.434835126252	1
bin	14.258067749754	2
bin	18.081300373255	2
bin	21.904532996757	2
bin	25.727765620259	2
bin	29.55099824376	1
bin	33.374230867262	1
bin	37.197463490764	2
bin	41.020696114265	0
bin	44.843928737767	0
bin	48.667161361269	1
bin	52.49039398477	1
bin	56.313626608272	1
bin	60.136859231774	0
bin	63.960091855275	0
bin	67.783324478777	0
bin	71.606557102279	0
bin	75.42978972578	0
bin	79.253022349282	0
bin	83.076254972784	0
bin	86.899487596285	0
scalar ExamTaskNetwork.BrowsingLaptop[3].networkLayer.arp 	initiatedARPResolution:count 	8
attr title  "ARP initiated resolutions, count"
scalar ExamTaskNetwork.BrowsingLaptop[3].networkLayer.arp 	sentReply:count 	3
attr title  "ARP replies sent, count"
scalar ExamTaskNetwork.BrowsingLaptop[3].networkLayer.arp 	sentReq:count 	9
attr title  "ARP request sent, count"
scalar ExamTaskNetwork.BrowsingLaptop[3].networkLayer.arp 	failedARPResolution:count 	0
attr title  "ARP failed resolutions, count"
scalar ExamTaskNetwork.BrowsingLaptop[3].networkLayer.arp 	completedARPResolution:count 	137
attr title  "ARP completed resolutions, count"
scalar ExamTaskNetwork.BrowsingLaptop[3].lo0.lo 	rcvdPkFromHL:count 	0
attr interpolationmode  none
attr source  packetReceivedFromUpper
attr title  "packets received from higher layer, count"
scalar ExamTaskNetwork.BrowsingLaptop[3].lo0.lo 	rcvdPkFromHL:sum(packetBytes) 	0
attr interpolationmode  none
attr source  packetReceivedFromUpper
attr title  "packets received from higher layer, sum(packetBytes)"
scalar ExamTaskNetwork.BrowsingLaptop[3].lo0.lo 	passedUpPk:count 	0
attr interpolationmode  none
attr source  packetSentToUpper
attr title  "packets passed to higher layer, count"
scalar ExamTaskNetwork.BrowsingLaptop[3].lo0.lo 	passedUpPk:sum(packetBytes) 	0
attr interpolationmode  none
attr source  packetSentToUpper
attr title  "packets passed to higher layer, sum(packetBytes)"
scalar ExamTaskNetwork.BrowsingLaptop[3].lo0.lo 	droppedPkBitError:count 	0
attr interpolationmode  none
attr source  dropPkBitError
attr title  "packets dropped/bit error, count"
scalar ExamTaskNetwork.BrowsingLaptop[3].lo0.lo 	droppedPkBitError:sum(packetBytes) 	0
attr interpolationmode  none
attr source  dropPkBitError
attr title  "packets dropped/bit error, sum(packetBytes)"
scalar ExamTaskNetwork.BrowsingLaptop[3].wlan[0].agent 	dropConfirm:count 	0
attr title  "dropped confirms, count"
scalar ExamTaskNetwork.BrowsingLaptop[3].wlan[0].agent 	acceptConfirm:count 	33
attr title  "accepted confirms, count"
scalar ExamTaskNetwork.BrowsingLaptop[3].wlan[0].agent 	sentRequest:count 	33
attr title  "sent requests, count"
scalar ExamTaskNetwork.BrowsingLaptop[3].wlan[0].mgmt 	dropPkByQueue:count 	30
attr interpolationmode  none
attr source  dropPkByQueue
attr title  "packets dropped by queue, count"
scalar ExamTaskNetwork.BrowsingLaptop[3].wlan[0].mgmt 	dropPkByQueue:sum(packetBytes) 	2940
attr interpolationmode  none
attr source  dropPkByQueue
attr title  "packets dropped by queue, sum(packetBytes)"
scalar ExamTaskNetwork.BrowsingLaptop[3].wlan[0].mgmt 	dataQueueLen:max 	50
attr interpolationmode  sample-hold
attr title  "data queue length, max"
scalar ExamTaskNetwork.BrowsingLaptop[3].wlan[0].mgmt 	dataQueueLen:timeavg 	0.011775415426781
attr interpolationmode  sample-hold
attr title  "data queue length, timeavg"
scalar ExamTaskNetwork.BrowsingLaptop[3].wlan[0].mac 	"number of received packets" 	17676
scalar ExamTaskNetwork.BrowsingLaptop[3].wlan[0].mac 	"number of collisions" 	45879
scalar ExamTaskNetwork.BrowsingLaptop[3].wlan[0].mac 	"number of internal collisions" 	0
scalar ExamTaskNetwork.BrowsingLaptop[3].wlan[0].mac 	"number of retry for AC 0" 	308
scalar ExamTaskNetwork.BrowsingLaptop[3].wlan[0].mac 	"sent and received bits" 	8082112
scalar ExamTaskNetwork.BrowsingLaptop[3].wlan[0].mac 	"sent packet within AC 0" 	9415
scalar ExamTaskNetwork.BrowsingLaptop[3].wlan[0].mac 	"sent in TXOP " 	0
scalar ExamTaskNetwork.BrowsingLaptop[3].wlan[0].mac 	"sentWithoutRetry AC 0" 	9175
scalar ExamTaskNetwork.BrowsingLaptop[3].wlan[0].mac 	"numGivenUp AC 0" 	0
scalar ExamTaskNetwork.BrowsingLaptop[3].wlan[0].mac 	"numDropped AC 0" 	0
scalar ExamTaskNetwork.BrowsingLaptop[3].wlan[0].mac 	rcvdPkFromHL:count 	9427
attr interpolationmode  none
attr source  packetReceivedFromUpper
attr title  "packets received from higher layer, count"
scalar ExamTaskNetwork.BrowsingLaptop[3].wlan[0].mac 	rcvdPkFromHL:sum(packetBytes) 	1010346
attr interpolationmode  none
attr source  packetReceivedFromUpper
attr title  "packets received from higher layer, sum(packetBytes)"
scalar ExamTaskNetwork.BrowsingLaptop[3].wlan[0].mac 	passedUpPk:count 	27376
attr interpolationmode  none
attr source  packetSentToUpper
attr title  "packets passed to higher layer, count"
scalar ExamTaskNetwork.BrowsingLaptop[3].wlan[0].mac 	passedUpPk:sum(packetBytes) 	15364294
attr interpolationmode  none
attr source  packetSentToUpper
attr title  "packets passed to higher layer, sum(packetBytes)"
scalar ExamTaskNetwork.BrowsingLaptop[3].wlan[0].mac 	rcvdPkFromLL:count 	3654391
attr interpolationmode  none
attr source  packetReceivedFromLower
attr title  "packets received from lower layer, count"
scalar ExamTaskNetwork.BrowsingLaptop[3].wlan[0].mac 	rcvdPkFromLL:sum(packetBytes) 	1392122499
attr interpolationmode  none
attr source  packetReceivedFromLower
attr title  "packets received from lower layer, sum(packetBytes)"
scalar ExamTaskNetwork.BrowsingLaptop[3].wlan[0].mac 	sentDownPk:count 	27411
attr interpolationmode  none
attr source  packetSentToLower
attr title  "packets sent to lower layer, count"
scalar ExamTaskNetwork.BrowsingLaptop[3].wlan[0].mac 	sentDownPk:sum(packetBytes) 	1339168
attr interpolationmode  none
attr source  packetSentToLower
attr title  "packets sent to lower layer, sum(packetBytes)"
scalar ExamTaskNetwork.BrowsingLaptop[3].wlan[0].radio 	lossRate:min 	0
attr interpolationmode  backward-sample-hold
attr title  "packet loss rate, min"
scalar ExamTaskNetwork.BrowsingLaptop[3].wlan[0].radio 	lossRate:max 	0.2
attr interpolationmode  backward-sample-hold
attr title  "packet loss rate, max"
scalar ExamTaskNetwork.BrowsingLaptop[3].wlan[0].radio 	lossRate:timeavg 	0.012233642117094
attr interpolationmode  backward-sample-hold
attr title  "packet loss rate, timeavg"
statistic ExamTaskNetwork.BrowsingLaptop[3].wlan[0].radio 	channelNo:histogram
field count 1
field mean 0
field stddev -nan
field sum 0
field sqrsum 0
field min 0
field max 0
attr interpolationmode  sample-hold
attr title  "channel no, histogram"
bin	-INF	0
bin	-0.5	0
bin	-0.46666666666667	0
bin	-0.43333333333333	0
bin	-0.4	0
bin	-0.36666666666667	0
bin	-0.33333333333333	0
bin	-0.3	0
bin	-0.26666666666667	0
bin	-0.23333333333333	0
bin	-0.2	0
bin	-0.16666666666667	0
bin	-0.13333333333333	0
bin	-0.1	0
bin	-0.066666666666667	0
bin	-0.033333333333333	0
bin	0	1
bin	0.033333333333333	0
bin	0.066666666666667	0
bin	0.1	0
bin	0.13333333333333	0
bin	0.16666666666667	0
bin	0.2	0
bin	0.23333333333333	0
bin	0.26666666666667	0
bin	0.3	0
bin	0.33333333333333	0
bin	0.36666666666667	0
bin	0.4	0
bin	0.43333333333333	0
bin	0.46666666666667	0
bin	0.5	0
scalar ExamTaskNetwork.BrowsingLaptop[3].wlan[0].radio 	radioState:count 	7363968
attr interpolationmode  sample-hold
attr title  "radio state (enum), count"
scalar ExamTaskNetwork.BrowsingLaptop[3].wlan[0].radio 	bitrate:min 	54000000
attr interpolationmode  sample-hold
attr title  "tx bitrate, min"
attr unit  bps
scalar ExamTaskNetwork.BrowsingLaptop[3].wlan[0].radio 	bitrate:max 	54000000
attr interpolationmode  sample-hold
attr title  "tx bitrate, max"
attr unit  bps
scalar ExamTaskNetwork.BrowsingLaptop[3].wlan[0].radio 	bitrate:timeavg 	54000000
attr interpolationmode  sample-hold
attr title  "tx bitrate, timeavg"
attr unit  bps
scalar ExamTaskNetwork.BrowsingLaptop[3].tcpApp[0] 	numActiveSessions:max 	1
attr interpolationmode  sample-hold
attr source  sum(connect)
attr title  "number of active sessions, max"
scalar ExamTaskNetwork.BrowsingLaptop[3].tcpApp[0] 	numActiveSessions:timeavg 	0.48129043356551
attr interpolationmode  sample-hold
attr source  sum(connect)
attr title  "number of active sessions, timeavg"
scalar ExamTaskNetwork.BrowsingLaptop[3].tcpApp[0] 	numSessions:last 	27
attr source  sum(connect+1)/2
attr title  "total number of sessions, last"
scalar ExamTaskNetwork.BrowsingLaptop[3].tcpApp[0] 	sentPk:count 	27
attr interpolationmode  none
attr source  sentPk
attr title  "packets sent, count"
scalar ExamTaskNetwork.BrowsingLaptop[3].tcpApp[0] 	sentPk:sum(packetBytes) 	221184
attr interpolationmode  none
attr source  sentPk
attr title  "packets sent, sum(packetBytes)"
scalar ExamTaskNetwork.BrowsingLaptop[3].tcpApp[0] 	rcvdPk:count 	26
attr interpolationmode  none
attr source  rcvdPk
attr title  "packets received, count"
scalar ExamTaskNetwork.BrowsingLaptop[3].tcpApp[0] 	rcvdPk:sum(packetBytes) 	11329766
attr interpolationmode  none
attr source  rcvdPk
attr title  "packets received, sum(packetBytes)"
statistic ExamTaskNetwork.BrowsingLaptop[3].tcpApp[0] 	endToEndDelay:histogram
field count 26
field mean 17.794235035738
field stddev 14.000244122041
field sum 462.65011092919
field sqrsum 13132.675700103
field min 1.271567406918
field max 55.211191569938
attr interpolationmode  none
attr source  messageAge(rcvdPk)
attr title  "end-to-end delay, histogram"
attr unit  s
bin	-INF	0
bin	-25.698244674592	0
bin	-22.102269730391	0
bin	-18.506294786189	0
bin	-14.910319841988	0
bin	-11.314344897787	0
bin	-7.7183699535853	0
bin	-4.122395009384	0
bin	-0.52642006518267	2
bin	3.0695548790187	5
bin	6.66552982322	1
bin	10.261504767421	5
bin	13.857479711623	2
bin	17.453454655824	4
bin	21.049429600025	2
bin	24.645404544227	0
bin	28.241379488428	0
bin	31.837354432629	2
bin	35.433329376831	1
bin	39.029304321032	0
bin	42.625279265233	0
bin	46.221254209435	1
bin	49.817229153636	0
bin	53.413204097837	1
bin	57.009179042039	0
bin	60.60515398624	0
bin	64.201128930441	0
bin	67.797103874643	0
bin	71.393078818844	0
bin	74.989053763045	0
bin	78.585028707247	0
bin	82.181003651448	0
scalar ExamTaskNetwork.BrowsingLaptop[4].networkLayer.arp 	initiatedARPResolution:count 	8
attr title  "ARP initiated resolutions, count"
scalar ExamTaskNetwork.BrowsingLaptop[4].networkLayer.arp 	sentReply:count 	3
attr title  "ARP replies sent, count"
scalar ExamTaskNetwork.BrowsingLaptop[4].networkLayer.arp 	sentReq:count 	9
attr title  "ARP request sent, count"
scalar ExamTaskNetwork.BrowsingLaptop[4].networkLayer.arp 	failedARPResolution:count 	0
attr title  "ARP failed resolutions, count"
scalar ExamTaskNetwork.BrowsingLaptop[4].networkLayer.arp 	completedARPResolution:count 	123
attr title  "ARP completed resolutions, count"
scalar ExamTaskNetwork.BrowsingLaptop[4].lo0.lo 	rcvdPkFromHL:count 	0
attr interpolationmode  none
attr source  packetReceivedFromUpper
attr title  "packets received from higher layer, count"
scalar ExamTaskNetwork.BrowsingLaptop[4].lo0.lo 	rcvdPkFromHL:sum(packetBytes) 	0
attr interpolationmode  none
attr source  packetReceivedFromUpper
attr title  "packets received from higher layer, sum(packetBytes)"
scalar ExamTaskNetwork.BrowsingLaptop[4].lo0.lo 	passedUpPk:count 	0
attr interpolationmode  none
attr source  packetSentToUpper
attr title  "packets passed to higher layer, count"
scalar ExamTaskNetwork.BrowsingLaptop[4].lo0.lo 	passedUpPk:sum(packetBytes) 	0
attr interpolationmode  none
attr source  packetSentToUpper
attr title  "packets passed to higher layer, sum(packetBytes)"
scalar ExamTaskNetwork.BrowsingLaptop[4].lo0.lo 	droppedPkBitError:count 	0
attr interpolationmode  none
attr source  dropPkBitError
attr title  "packets dropped/bit error, count"
scalar ExamTaskNetwork.BrowsingLaptop[4].lo0.lo 	droppedPkBitError:sum(packetBytes) 	0
attr interpolationmode  none
attr source  dropPkBitError
attr title  "packets dropped/bit error, sum(packetBytes)"
scalar ExamTaskNetwork.BrowsingLaptop[4].wlan[0].agent 	dropConfirm:count 	0
attr title  "dropped confirms, count"
scalar ExamTaskNetwork.BrowsingLaptop[4].wlan[0].agent 	acceptConfirm:count 	33
attr title  "accepted confirms, count"
scalar ExamTaskNetwork.BrowsingLaptop[4].wlan[0].agent 	sentRequest:count 	33
attr title  "sent requests, count"
scalar ExamTaskNetwork.BrowsingLaptop[4].wlan[0].mgmt 	dropPkByQueue:count 	0
attr interpolationmode  none
attr source  dropPkByQueue
attr title  "packets dropped by queue, count"
scalar ExamTaskNetwork.BrowsingLaptop[4].wlan[0].mgmt 	dropPkByQueue:sum(packetBytes) 	0
attr interpolationmode  none
attr source  dropPkByQueue
attr title  "packets dropped by queue, sum(packetBytes)"
scalar ExamTaskNetwork.BrowsingLaptop[4].wlan[0].mgmt 	dataQueueLen:max 	1
attr interpolationmode  sample-hold
attr title  "data queue length, max"
scalar ExamTaskNetwork.BrowsingLaptop[4].wlan[0].mgmt 	dataQueueLen:timeavg 	9.1584408553228e-07
attr interpolationmode  sample-hold
attr title  "data queue length, timeavg"
scalar ExamTaskNetwork.BrowsingLaptop[4].wlan[0].mac 	"number of received packets" 	19438
scalar ExamTaskNetwork.BrowsingLaptop[4].wlan[0].mac 	"number of collisions" 	46106
scalar ExamTaskNetwork.BrowsingLaptop[4].wlan[0].mac 	"number of internal collisions" 	0
scalar ExamTaskNetwork.BrowsingLaptop[4].wlan[0].mac 	"number of retry for AC 0" 	79
scalar ExamTaskNetwork.BrowsingLaptop[4].wlan[0].mac 	"sent and received bits" 	7676480
scalar ExamTaskNetwork.BrowsingLaptop[4].wlan[0].mac 	"sent packet within AC 0" 	9334
scalar ExamTaskNetwork.BrowsingLaptop[4].wlan[0].mac 	"sent in TXOP " 	0
scalar ExamTaskNetwork.BrowsingLaptop[4].wlan[0].mac 	"sentWithoutRetry AC 0" 	9286
scalar ExamTaskNetwork.BrowsingLaptop[4].wlan[0].mac 	"numGivenUp AC 0" 	0
scalar ExamTaskNetwork.BrowsingLaptop[4].wlan[0].mac 	"numDropped AC 0" 	0
scalar ExamTaskNetwork.BrowsingLaptop[4].wlan[0].mac 	rcvdPkFromHL:count 	9345
attr interpolationmode  none
attr source  packetReceivedFromUpper
attr title  "packets received from higher layer, count"
scalar ExamTaskNetwork.BrowsingLaptop[4].wlan[0].mac 	rcvdPkFromHL:sum(packetBytes) 	959560
attr interpolationmode  none
attr source  packetReceivedFromUpper
attr title  "packets received from higher layer, sum(packetBytes)"
scalar ExamTaskNetwork.BrowsingLaptop[4].wlan[0].mac 	passedUpPk:count 	29138
attr interpolationmode  none
attr source  packetSentToUpper
attr title  "packets passed to higher layer, count"
scalar ExamTaskNetwork.BrowsingLaptop[4].wlan[0].mac 	passedUpPk:sum(packetBytes) 	17120129
attr interpolationmode  none
attr source  packetSentToUpper
attr title  "packets passed to higher layer, sum(packetBytes)"
scalar ExamTaskNetwork.BrowsingLaptop[4].wlan[0].mac 	rcvdPkFromLL:count 	3652940
attr interpolationmode  none
attr source  packetReceivedFromLower
attr title  "packets received from lower layer, count"
scalar ExamTaskNetwork.BrowsingLaptop[4].wlan[0].mac 	rcvdPkFromLL:sum(packetBytes) 	1392190493
attr interpolationmode  none
attr source  packetReceivedFromLower
attr title  "packets received from lower layer, sum(packetBytes)"
scalar ExamTaskNetwork.BrowsingLaptop[4].wlan[0].mac 	sentDownPk:count 	28862
attr interpolationmode  none
attr source  packetSentToLower
attr title  "packets sent to lower layer, count"
scalar ExamTaskNetwork.BrowsingLaptop[4].wlan[0].mac 	sentDownPk:sum(packetBytes) 	1259474
attr interpolationmode  none
attr source  packetSentToLower
attr title  "packets sent to lower layer, sum(packetBytes)"
scalar ExamTaskNetwork.BrowsingLaptop[4].wlan[0].radio 	lossRate:min 	0
attr interpolationmode  backward-sample-hold
attr title  "packet loss rate, min"
scalar ExamTaskNetwork.BrowsingLaptop[4].wlan[0].radio 	lossRate:max 	0.2
attr interpolationmode  backward-sample-hold
attr title  "packet loss rate, max"
scalar ExamTaskNetwork.BrowsingLaptop[4].wlan[0].radio 	lossRate:timeavg 	0.012285621770146
attr interpolationmode  backward-sample-hold
attr title  "packet loss rate, timeavg"
statistic ExamTaskNetwork.BrowsingLaptop[4].wlan[0].radio 	channelNo:histogram
field count 1
field mean 0
field stddev -nan
field sum 0
field sqrsum 0
field min 0
field max 0
attr interpolationmode  sample-hold
attr title  "channel no, histogram"
bin	-INF	0
bin	-0.5	0
bin	-0.46666666666667	0
bin	-0.43333333333333	0
bin	-0.4	0
bin	-0.36666666666667	0
bin	-0.33333333333333	0
bin	-0.3	0
bin	-0.26666666666667	0
bin	-0.23333333333333	0
bin	-0.2	0
bin	-0.16666666666667	0
bin	-0.13333333333333	0
bin	-0.1	0
bin	-0.066666666666667	0
bin	-0.033333333333333	0
bin	0	1
bin	0.033333333333333	0
bin	0.066666666666667	0
bin	0.1	0
bin	0.13333333333333	0
bin	0.16666666666667	0
bin	0.2	0
bin	0.23333333333333	0
bin	0.26666666666667	0
bin	0.3	0
bin	0.33333333333333	0
bin	0.36666666666667	0
bin	0.4	0
bin	0.43333333333333	0
bin	0.46666666666667	0
bin	0.5	0
scalar ExamTaskNetwork.BrowsingLaptop[4].wlan[0].radio 	radioState:count 	7363699
attr interpolationmode  sample-hold
attr title  "radio state (enum), count"
scalar ExamTaskNetwork.BrowsingLaptop[4].wlan[0].radio 	bitrate:min 	54000000
attr interpolationmode  sample-hold
attr title  "tx bitrate, min"
attr unit  bps
scalar ExamTaskNetwork.BrowsingLaptop[4].wlan[0].radio 	bitrate:max 	54000000
attr interpolationmode  sample-hold
attr title  "tx bitrate, max"
attr unit  bps
scalar ExamTaskNetwork.BrowsingLaptop[4].wlan[0].radio 	bitrate:timeavg 	54000000
attr interpolationmode  sample-hold
attr title  "tx bitrate, timeavg"
attr unit  bps
scalar ExamTaskNetwork.BrowsingLaptop[4].tcpApp[0] 	numActiveSessions:max 	1
attr interpolationmode  sample-hold
attr source  sum(connect)
attr title  "number of active sessions, max"
scalar ExamTaskNetwork.BrowsingLaptop[4].tcpApp[0] 	numActiveSessions:timeavg 	0.53924812877703
attr interpolationmode  sample-hold
attr source  sum(connect)
attr title  "number of active sessions, timeavg"
scalar ExamTaskNetwork.BrowsingLaptop[4].tcpApp[0] 	numSessions:last 	23
attr source  sum(connect+1)/2
attr title  "total number of sessions, last"
scalar ExamTaskNetwork.BrowsingLaptop[4].tcpApp[0] 	sentPk:count 	23
attr interpolationmode  none
attr source  sentPk
attr title  "packets sent, count"
scalar ExamTaskNetwork.BrowsingLaptop[4].tcpApp[0] 	sentPk:sum(packetBytes) 	188416
attr interpolationmode  none
attr source  sentPk
attr title  "packets sent, sum(packetBytes)"
scalar ExamTaskNetwork.BrowsingLaptop[4].tcpApp[0] 	rcvdPk:count 	22
attr interpolationmode  none
attr source  rcvdPk
attr title  "packets received, count"
scalar ExamTaskNetwork.BrowsingLaptop[4].tcpApp[0] 	rcvdPk:sum(packetBytes) 	11034029
attr interpolationmode  none
attr source  rcvdPk
attr title  "packets received, sum(packetBytes)"
statistic ExamTaskNetwork.BrowsingLaptop[4].tcpApp[0] 	endToEndDelay:histogram
field count 22
field mean 22.416641728466
field stddev 21.07148197687
field sum 493.16611802626
field sqrsum 20379.282587146
field min 0.871170901986
field max 91.085715927617
attr interpolationmode  none
attr source  messageAge(rcvdPk)
attr title  "end-to-end delay, histogram"
attr unit  s
bin	-INF	0
bin	-44.236101610829	0
bin	-38.221798609121	0
bin	-32.207495607412	0
bin	-26.193192605703	0
bin	-20.178889603995	0
bin	-14.164586602286	0
bin	-8.1502836005771	0
bin	-2.1359805988684	4
bin	3.8783224028404	3
bin	9.8926254045491	2
bin	15.906928406258	4
bin	21.921231407967	2
bin	27.935534409675	2
bin	33.949837411384	2
bin	39.964140413093	1
bin	45.978443414802	1
bin	51.99274641651	0
bin	58.007049418219	0
bin	64.021352419928	0
bin	70.035655421636	0
bin	76.049958423345	0
bin	82.064261425054	0
bin	88.078564426763	1
bin	94.092867428471	0
bin	100.10717043018	0
bin	106.12147343189	0
bin	112.1357764336	0
bin	118.15007943531	0
bin	124.16438243702	0
bin	130.17868543872	0
bin	136.19298844043	0
scalar ExamTaskNetwork.BrowsingLaptop[5].networkLayer.arp 	initiatedARPResolution:count 	8
attr title  "ARP initiated resolutions, count"
scalar ExamTaskNetwork.BrowsingLaptop[5].networkLayer.arp 	sentReply:count 	5
attr title  "ARP replies sent, count"
scalar ExamTaskNetwork.BrowsingLaptop[5].networkLayer.arp 	sentReq:count 	9
attr title  "ARP request sent, count"
scalar ExamTaskNetwork.BrowsingLaptop[5].networkLayer.arp 	failedARPResolution:count 	0
attr title  "ARP failed resolutions, count"
scalar ExamTaskNetwork.BrowsingLaptop[5].networkLayer.arp 	completedARPResolution:count 	127
attr title  "ARP completed resolutions, count"
scalar ExamTaskNetwork.BrowsingLaptop[5].lo0.lo 	rcvdPkFromHL:count 	0
attr interpolationmode  none
attr source  packetReceivedFromUpper
attr title  "packets received from higher layer, count"
scalar ExamTaskNetwork.BrowsingLaptop[5].lo0.lo 	rcvdPkFromHL:sum(packetBytes) 	0
attr interpolationmode  none
attr source  packetReceivedFromUpper
attr title  "packets received from higher layer, sum(packetBytes)"
scalar ExamTaskNetwork.BrowsingLaptop[5].lo0.lo 	passedUpPk:count 	0
attr interpolationmode  none
attr source  packetSentToUpper
attr title  "packets passed to higher layer, count"
scalar ExamTaskNetwork.BrowsingLaptop[5].lo0.lo 	passedUpPk:sum(packetBytes) 	0
attr interpolationmode  none
attr source  packetSentToUpper
attr title  "packets passed to higher layer, sum(packetBytes)"
scalar ExamTaskNetwork.BrowsingLaptop[5].lo0.lo 	droppedPkBitError:count 	0
attr interpolationmode  none
attr source  dropPkBitError
attr title  "packets dropped/bit error, count"
scalar ExamTaskNetwork.BrowsingLaptop[5].lo0.lo 	droppedPkBitError:sum(packetBytes) 	0
attr interpolationmode  none
attr source  dropPkBitError
attr title  "packets dropped/bit error, sum(packetBytes)"
scalar ExamTaskNetwork.BrowsingLaptop[5].wlan[0].agent 	dropConfirm:count 	0
attr title  "dropped confirms, count"
scalar ExamTaskNetwork.BrowsingLaptop[5].wlan[0].agent 	acceptConfirm:count 	33
attr title  "accepted confirms, count"
scalar ExamTaskNetwork.BrowsingLaptop[5].wlan[0].agent 	sentRequest:count 	33
attr title  "sent requests, count"
scalar ExamTaskNetwork.BrowsingLaptop[5].wlan[0].mgmt 	dropPkByQueue:count 	151
attr interpolationmode  none
attr source  dropPkByQueue
attr title  "packets dropped by queue, count"
scalar ExamTaskNetwork.BrowsingLaptop[5].wlan[0].mgmt 	dropPkByQueue:sum(packetBytes) 	14788
attr interpolationmode  none
attr source  dropPkByQueue
attr title  "packets dropped by queue, sum(packetBytes)"
scalar ExamTaskNetwork.BrowsingLaptop[5].wlan[0].mgmt 	dataQueueLen:max 	50
attr interpolationmode  sample-hold
attr title  "data queue length, max"
scalar ExamTaskNetwork.BrowsingLaptop[5].wlan[0].mgmt 	dataQueueLen:timeavg 	0.015149582968576
attr interpolationmode  sample-hold
attr title  "data queue length, timeavg"
scalar ExamTaskNetwork.BrowsingLaptop[5].wlan[0].mac 	"number of received packets" 	20581
scalar ExamTaskNetwork.BrowsingLaptop[5].wlan[0].mac 	"number of collisions" 	45912
scalar ExamTaskNetwork.BrowsingLaptop[5].wlan[0].mac 	"number of internal collisions" 	0
scalar ExamTaskNetwork.BrowsingLaptop[5].wlan[0].mac 	"number of retry for AC 0" 	298
scalar ExamTaskNetwork.BrowsingLaptop[5].wlan[0].mac 	"sent and received bits" 	8700160
scalar ExamTaskNetwork.BrowsingLaptop[5].wlan[0].mac 	"sent packet within AC 0" 	10794
scalar ExamTaskNetwork.BrowsingLaptop[5].wlan[0].mac 	"sent in TXOP " 	0
scalar ExamTaskNetwork.BrowsingLaptop[5].wlan[0].mac 	"sentWithoutRetry AC 0" 	10557
scalar ExamTaskNetwork.BrowsingLaptop[5].wlan[0].mac 	"numGivenUp AC 0" 	0
scalar ExamTaskNetwork.BrowsingLaptop[5].wlan[0].mac 	"numDropped AC 0" 	0
scalar ExamTaskNetwork.BrowsingLaptop[5].wlan[0].mac 	rcvdPkFromHL:count 	10805
attr interpolationmode  none
attr source  packetReceivedFromUpper
attr title  "packets received from higher layer, count"
scalar ExamTaskNetwork.BrowsingLaptop[5].wlan[0].mac 	rcvdPkFromHL:sum(packetBytes) 	1087520
attr interpolationmode  none
attr source  packetReceivedFromUpper
attr title  "packets received from higher layer, sum(packetBytes)"
scalar ExamTaskNetwork.BrowsingLaptop[5].wlan[0].mac 	passedUpPk:count 	30279
attr interpolationmode  none
attr source  packetSentToUpper
attr title  "packets passed to higher layer, count"
scalar ExamTaskNetwork.BrowsingLaptop[5].wlan[0].mac 	passedUpPk:sum(packetBytes) 	17798913
attr interpolationmode  none
attr source  packetSentToUpper
attr title  "packets passed to higher layer, sum(packetBytes)"
scalar ExamTaskNetwork.BrowsingLaptop[5].wlan[0].mac 	rcvdPkFromLL:count 	3650118
attr interpolationmode  none
attr source  packetReceivedFromLower
attr title  "packets received from lower layer, count"
scalar ExamTaskNetwork.BrowsingLaptop[5].wlan[0].mac 	rcvdPkFromLL:sum(packetBytes) 	1391961731
attr interpolationmode  none
attr source  packetReceivedFromLower
attr title  "packets received from lower layer, sum(packetBytes)"
scalar ExamTaskNetwork.BrowsingLaptop[5].wlan[0].mac 	sentDownPk:count 	31684
attr interpolationmode  none
attr source  packetSentToLower
attr title  "packets sent to lower layer, count"
scalar ExamTaskNetwork.BrowsingLaptop[5].wlan[0].mac 	sentDownPk:sum(packetBytes) 	1464572
attr interpolationmode  none
attr source  packetSentToLower
attr title  "packets sent to lower layer, sum(packetBytes)"
scalar ExamTaskNetwork.BrowsingLaptop[5].wlan[0].radio 	lossRate:min 	0
attr interpolationmode  backward-sample-hold
attr title  "packet loss rate, min"
scalar ExamTaskNetwork.BrowsingLaptop[5].wlan[0].radio 	lossRate:max 	0.22
attr interpolationmode  backward-sample-hold
attr title  "packet loss rate, max"
scalar ExamTaskNetwork.BrowsingLaptop[5].wlan[0].radio 	lossRate:timeavg 	0.012258426065698
attr interpolationmode  backward-sample-hold
attr title  "packet loss rate, timeavg"
statistic ExamTaskNetwork.BrowsingLaptop[5].wlan[0].radio 	channelNo:histogram
field count 1
field mean 0
field stddev -nan
field sum 0
field sqrsum 0
field min 0
field max 0
attr interpolationmode  sample-hold
attr title  "channel no, histogram"
bin	-INF	0
bin	-0.5	0
bin	-0.46666666666667	0
bin	-0.43333333333333	0
bin	-0.4	0
bin	-0.36666666666667	0
bin	-0.33333333333333	0
bin	-0.3	0
bin	-0.26666666666667	0
bin	-0.23333333333333	0
bin	-0.2	0
bin	-0.16666666666667	0
bin	-0.13333333333333	0
bin	-0.1	0
bin	-0.066666666666667	0
bin	-0.033333333333333	0
bin	0	1
bin	0.033333333333333	0
bin	0.066666666666667	0
bin	0.1	0
bin	0.13333333333333	0
bin	0.16666666666667	0
bin	0.2	0
bin	0.23333333333333	0
bin	0.26666666666667	0
bin	0.3	0
bin	0.33333333333333	0
bin	0.36666666666667	0
bin	0.4	0
bin	0.43333333333333	0
bin	0.46666666666667	0
bin	0.5	0
scalar ExamTaskNetwork.BrowsingLaptop[5].wlan[0].radio 	radioState:count 	7363967
attr interpolationmode  sample-hold
attr title  "radio state (enum), count"
scalar ExamTaskNetwork.BrowsingLaptop[5].wlan[0].radio 	bitrate:min 	54000000
attr interpolationmode  sample-hold
attr title  "tx bitrate, min"
attr unit  bps
scalar ExamTaskNetwork.BrowsingLaptop[5].wlan[0].radio 	bitrate:max 	54000000
attr interpolationmode  sample-hold
attr title  "tx bitrate, max"
attr unit  bps
scalar ExamTaskNetwork.BrowsingLaptop[5].wlan[0].radio 	bitrate:timeavg 	54000000
attr interpolationmode  sample-hold
attr title  "tx bitrate, timeavg"
attr unit  bps
scalar ExamTaskNetwork.BrowsingLaptop[5].tcpApp[0] 	numActiveSessions:max 	1
attr interpolationmode  sample-hold
attr source  sum(connect)
attr title  "number of active sessions, max"
scalar ExamTaskNetwork.BrowsingLaptop[5].tcpApp[0] 	numActiveSessions:timeavg 	0.52910852006598
attr interpolationmode  sample-hold
attr source  sum(connect)
attr title  "number of active sessions, timeavg"
scalar ExamTaskNetwork.BrowsingLaptop[5].tcpApp[0] 	numSessions:last 	23
attr source  sum(connect+1)/2
attr title  "total number of sessions, last"
scalar ExamTaskNetwork.BrowsingLaptop[5].tcpApp[0] 	sentPk:count 	23
attr interpolationmode  none
attr source  sentPk
attr title  "packets sent, count"
scalar ExamTaskNetwork.BrowsingLaptop[5].tcpApp[0] 	sentPk:sum(packetBytes) 	188416
attr interpolationmode  none
attr source  sentPk
attr title  "packets sent, sum(packetBytes)"
scalar ExamTaskNetwork.BrowsingLaptop[5].tcpApp[0] 	rcvdPk:count 	22
attr interpolationmode  none
attr source  rcvdPk
attr title  "packets received, count"
scalar ExamTaskNetwork.BrowsingLaptop[5].tcpApp[0] 	rcvdPk:sum(packetBytes) 	12785955
attr interpolationmode  none
attr source  rcvdPk
attr title  "packets received, sum(packetBytes)"
statistic ExamTaskNetwork.BrowsingLaptop[5].tcpApp[0] 	endToEndDelay:histogram
field count 22
field mean 22.589462943424
field stddev 18.320174653982
field sum 496.96818475532
field sqrsum 18274.449179991
field min 3.124896217653
field max 63.390671032311
attr interpolationmode  none
attr source  messageAge(rcvdPk)
attr title  "end-to-end delay, histogram"
attr unit  s
bin	-INF	0
bin	-27.007991189676	0
bin	-22.990272868699	0
bin	-18.972554547722	0
bin	-14.954836226744	0
bin	-10.937117905767	0
bin	-6.91939958479	0
bin	-2.9016812638128	0
bin	1.1160370571644	4
bin	5.1337553781416	4
bin	9.1514736991188	1
bin	13.169192020096	0
bin	17.186910341073	4
bin	21.20462866205	1
bin	25.222346983028	2
bin	29.240065304005	0
bin	33.257783624982	1
bin	37.275501945959	1
bin	41.293220266936	2
bin	45.310938587914	0
bin	49.328656908891	0
bin	53.346375229868	0
bin	57.364093550845	1
bin	61.381811871822	1
bin	65.3995301928	0
bin	69.417248513777	0
bin	73.434966834754	0
bin	77.452685155731	0
bin	81.470403476708	0
bin	85.488121797686	0
bin	89.505840118663	0
bin	93.52355843964	0
scalar ExamTaskNetwork.BrowsingLaptop[6].networkLayer.arp 	initiatedARPResolution:count 	7
attr title  "ARP initiated resolutions, count"
scalar ExamTaskNetwork.BrowsingLaptop[6].networkLayer.arp 	sentReply:count 	2
attr title  "ARP replies sent, count"
scalar ExamTaskNetwork.BrowsingLaptop[6].networkLayer.arp 	sentReq:count 	7
attr title  "ARP request sent, count"
scalar ExamTaskNetwork.BrowsingLaptop[6].networkLayer.arp 	failedARPResolution:count 	0
attr title  "ARP failed resolutions, count"
scalar ExamTaskNetwork.BrowsingLaptop[6].networkLayer.arp 	completedARPResolution:count 	135
attr title  "ARP completed resolutions, count"
scalar ExamTaskNetwork.BrowsingLaptop[6].lo0.lo 	rcvdPkFromHL:count 	0
attr interpolationmode  none
attr source  packetReceivedFromUpper
attr title  "packets received from higher layer, count"
scalar ExamTaskNetwork.BrowsingLaptop[6].lo0.lo 	rcvdPkFromHL:sum(packetBytes) 	0
attr interpolationmode  none
attr source  packetReceivedFromUpper
attr title  "packets received from higher layer, sum(packetBytes)"
scalar ExamTaskNetwork.BrowsingLaptop[6].lo0.lo 	passedUpPk:count 	0
attr interpolationmode  none
attr source  packetSentToUpper
attr title  "packets passed to higher layer, count"
scalar ExamTaskNetwork.BrowsingLaptop[6].lo0.lo 	passedUpPk:sum(packetBytes) 	0
attr interpolationmode  none
attr source  packetSentToUpper
attr title  "packets passed to higher layer, sum(packetBytes)"
scalar ExamTaskNetwork.BrowsingLaptop[6].lo0.lo 	droppedPkBitError:count 	0
attr interpolationmode  none
attr source  dropPkBitError
attr title  "packets dropped/bit error, count"
scalar ExamTaskNetwork.BrowsingLaptop[6].lo0.lo 	droppedPkBitError:sum(packetBytes) 	0
attr interpolationmode  none
attr source  dropPkBitError
attr title  "packets dropped/bit error, sum(packetBytes)"
scalar ExamTaskNetwork.BrowsingLaptop[6].wlan[0].agent 	dropConfirm:count 	0
attr title  "dropped confirms, count"
scalar ExamTaskNetwork.BrowsingLaptop[6].wlan[0].agent 	acceptConfirm:count 	33
attr title  "accepted confirms, count"
scalar ExamTaskNetwork.BrowsingLaptop[6].wlan[0].agent 	sentRequest:count 	33
attr title  "sent requests, count"
scalar ExamTaskNetwork.BrowsingLaptop[6].wlan[0].mgmt 	dropPkByQueue:count 	0
attr interpolationmode  none
attr source  dropPkByQueue
attr title  "packets dropped by queue, count"
scalar ExamTaskNetwork.BrowsingLaptop[6].wlan[0].mgmt 	dropPkByQueue:sum(packetBytes) 	0
attr interpolationmode  none
attr source  dropPkByQueue
attr title  "packets dropped by queue, sum(packetBytes)"
scalar ExamTaskNetwork.BrowsingLaptop[6].wlan[0].mgmt 	dataQueueLen:max 	2
attr interpolationmode  sample-hold
attr title  "data queue length, max"
scalar ExamTaskNetwork.BrowsingLaptop[6].wlan[0].mgmt 	dataQueueLen:timeavg 	2.4395888774353e-06
attr interpolationmode  sample-hold
attr title  "data queue length, timeavg"
scalar ExamTaskNetwork.BrowsingLaptop[6].wlan[0].mac 	"number of received packets" 	16662
scalar ExamTaskNetwork.BrowsingLaptop[6].wlan[0].mac 	"number of collisions" 	46100
[...]
attr title  "pause sent, count"
scalar ExamTaskNetwork.MainRouter.eth[1].encap 	pauseSent:sum 	0
attr title  "pause sent, sum"
scalar ExamTaskNetwork.MainRouter.eth[1].encap 	decapPk:count 	24980
attr interpolationmode  none
attr source  decapPk
attr title  "packets decapsulated, count"
scalar ExamTaskNetwork.MainRouter.eth[1].encap 	decapPk:sum(packetBytes) 	35647640
attr interpolationmode  none
attr source  decapPk
attr title  "packets decapsulated, sum(packetBytes)"
scalar ExamTaskNetwork.MainRouter.eth[1].encap 	encapPk:count 	24860
attr interpolationmode  none
attr source  encapPk
attr title  "packets encapsulated, count"
scalar ExamTaskNetwork.MainRouter.eth[1].encap 	encapPk:sum(packetBytes) 	35476280
attr interpolationmode  none
attr source  encapPk
attr title  "packets encapsulated, sum(packetBytes)"
scalar ExamTaskNetwork.MainRouter.eth[2].mac 	"simulated time" 	1000.0000059701
scalar ExamTaskNetwork.MainRouter.eth[2].mac 	full-duplex 	1
scalar ExamTaskNetwork.MainRouter.eth[2].mac 	"frames/sec sent" 	174.79199895647
scalar ExamTaskNetwork.MainRouter.eth[2].mac 	"frames/sec rcvd" 	0.0089999999462687
scalar ExamTaskNetwork.MainRouter.eth[2].mac 	"bits/sec sent" 	2100197.1234615
scalar ExamTaskNetwork.MainRouter.eth[2].mac 	"bits/sec rcvd" 	4.6079999724896
scalar ExamTaskNetwork.MainRouter.eth[2].mac 	"rx channel idle (%)" 	99.999994816
scalar ExamTaskNetwork.MainRouter.eth[2].mac 	"rx channel utilization (%)" 	5.1839999690508e-06
scalar ExamTaskNetwork.MainRouter.eth[2].mac 	rxPkFromHL:count 	174792
attr interpolationmode  none
attr source  rxPkFromHL
attr title  "packet bytes from higher layer, count"
scalar ExamTaskNetwork.MainRouter.eth[2].mac 	rxPkFromHL:sum(packetBytes) 	262524642
attr interpolationmode  none
attr source  rxPkFromHL
attr title  "packet bytes from higher layer, sum(packetBytes)"
scalar ExamTaskNetwork.MainRouter.eth[2].mac 	rxPausePkUnits:count 	0
attr interpolationmode  none
attr title  "pause units received, count"
scalar ExamTaskNetwork.MainRouter.eth[2].mac 	rxPausePkUnits:sum 	0
attr interpolationmode  none
attr title  "pause units received, sum"
scalar ExamTaskNetwork.MainRouter.eth[2].mac 	txPausePkUnits:count 	0
attr interpolationmode  none
attr title  "pause units sent, count"
scalar ExamTaskNetwork.MainRouter.eth[2].mac 	txPausePkUnits:sum 	0
attr interpolationmode  none
attr title  "pause units sent, sum"
scalar ExamTaskNetwork.MainRouter.eth[2].mac 	txPk:count 	174792
attr interpolationmode  none
attr source  txPk
attr title  "packets transmitted, count"
scalar ExamTaskNetwork.MainRouter.eth[2].mac 	txPk:sum(packetBytes) 	262524642
attr interpolationmode  none
attr source  txPk
attr title  "packets transmitted, sum(packetBytes)"
scalar ExamTaskNetwork.MainRouter.eth[2].mac 	droppedPkNotForUs:count 	0
attr interpolationmode  none
attr source  dropPkNotForUs
attr title  "packets dropped/not for us, count"
scalar ExamTaskNetwork.MainRouter.eth[2].mac 	droppedPkNotForUs:sum(packetBytes) 	0
attr interpolationmode  none
attr source  dropPkNotForUs
attr title  "packets dropped/not for us, sum(packetBytes)"
scalar ExamTaskNetwork.MainRouter.eth[2].mac 	passedUpPk:count 	9
attr interpolationmode  none
attr source  packetSentToUpper
attr title  "packets passed to higher layer, count"
scalar ExamTaskNetwork.MainRouter.eth[2].mac 	passedUpPk:sum(packetBytes) 	576
attr interpolationmode  none
attr source  packetSentToUpper
attr title  "packets passed to higher layer, sum(packetBytes)"
scalar ExamTaskNetwork.MainRouter.eth[2].mac 	droppedPkBitError:count 	0
attr interpolationmode  none
attr source  dropPkBitError
attr title  "packets dropped/bit error, count"
scalar ExamTaskNetwork.MainRouter.eth[2].mac 	droppedPkBitError:sum(packetBytes) 	0
attr interpolationmode  none
attr source  dropPkBitError
attr title  "packets dropped/bit error, sum(packetBytes)"
scalar ExamTaskNetwork.MainRouter.eth[2].mac 	droppedPkIfaceDown:count 	0
attr interpolationmode  none
attr source  dropPkIfaceDown
attr title  "packets dropped/interface down, count"
scalar ExamTaskNetwork.MainRouter.eth[2].mac 	droppedPkIfaceDown:sum(packetBytes) 	0
attr interpolationmode  none
attr source  dropPkIfaceDown
attr title  "packets dropped/interface down, sum(packetBytes)"
scalar ExamTaskNetwork.MainRouter.eth[2].mac 	rxPkOk:count 	9
attr interpolationmode  none
attr source  rxPkOk
attr title  "packets received OK, count"
scalar ExamTaskNetwork.MainRouter.eth[2].mac 	rxPkOk:sum(packetBytes) 	576
attr interpolationmode  none
attr source  rxPkOk
attr title  "packets received OK, sum(packetBytes)"
scalar ExamTaskNetwork.MainRouter.eth[2].encap 	pauseSent:count 	0
attr title  "pause sent, count"
scalar ExamTaskNetwork.MainRouter.eth[2].encap 	pauseSent:sum 	0
attr title  "pause sent, sum"
scalar ExamTaskNetwork.MainRouter.eth[2].encap 	decapPk:count 	9
attr interpolationmode  none
attr source  decapPk
attr title  "packets decapsulated, count"
scalar ExamTaskNetwork.MainRouter.eth[2].encap 	decapPk:sum(packetBytes) 	252
attr interpolationmode  none
attr source  decapPk
attr title  "packets decapsulated, sum(packetBytes)"
scalar ExamTaskNetwork.MainRouter.eth[2].encap 	encapPk:count 	174792
attr interpolationmode  none
attr source  encapPk
attr title  "packets encapsulated, count"
scalar ExamTaskNetwork.MainRouter.eth[2].encap 	encapPk:sum(packetBytes) 	259378224
attr interpolationmode  none
attr source  encapPk
attr title  "packets encapsulated, sum(packetBytes)"
scalar ExamTaskNetwork.MainRouter.ppp[0].outputHook[0] 	duration 	1000.0000059701
scalar ExamTaskNetwork.MainRouter.ppp[0].outputHook[0] 	"total packets" 	1209446
scalar ExamTaskNetwork.MainRouter.ppp[0].outputHook[0] 	"total bits" 	5267757840
scalar ExamTaskNetwork.MainRouter.ppp[0].outputHook[0] 	"avg throughput (bit/s)" 	5267757.8085508
scalar ExamTaskNetwork.MainRouter.ppp[0].outputHook[0] 	"avg packets/s" 	1209.4459927794
scalar ExamTaskNetwork.MainRouter.ppp[0].inputHook[0] 	duration 	1000.0000059701
scalar ExamTaskNetwork.MainRouter.ppp[0].inputHook[0] 	"total packets" 	918860
scalar ExamTaskNetwork.MainRouter.ppp[0].inputHook[0] 	"total bits" 	7119480344
scalar ExamTaskNetwork.MainRouter.ppp[0].inputHook[0] 	"avg throughput (bit/s)" 	7119480.3014957
scalar ExamTaskNetwork.MainRouter.ppp[0].inputHook[0] 	"avg packets/s" 	918.85999451428
statistic ExamTaskNetwork.MainRouter.ppp[0].queue 	queueingTime:histogram
field count 1111521
field mean 0.0017442800359024
field stddev 0.0041885786776927
field sum 1938.8038897863
field sqrsum 22.882536475856
field min 0
field max 0.039413302131
attr interpolationmode  none
attr title  "queueing time, histogram"
bin	-INF	0
bin	-0.0003425466705	0
bin	-0.0002968737811	0
bin	-0.0002512008917	0
bin	-0.0002055280023	0
bin	-0.0001598551129	0
bin	-0.0001141822235	0
bin	-6.85093341e-05	0
bin	-2.28364447e-05	462683
bin	2.28364447e-05	7237
bin	6.85093341e-05	15428
bin	0.0001141822235	9391
bin	0.0001598551129	5466
bin	0.0002055280023	4063
bin	0.0002512008917	3050
bin	0.0002968737811	3196
bin	0.0003425466705	3107
bin	0.0003882195599	2555
bin	0.0004338924493	2454
bin	0.0004795653387	2742
bin	0.0005252382281	3732
bin	0.0005709111175	4961
bin	0.0006165840069	5495
bin	0.0006622568963	3207
bin	0.0007079297857	2789
bin	0.0007536026751	3134
bin	0.0007992755645	2555
bin	0.0008449484539	2597
bin	0.0008906213433	48903
bin	0.0009362942327	4543
bin	0.0009819671221	147771
bin	0.0010276400115	360462
scalar ExamTaskNetwork.MainRouter.ppp[0].queue 	dropPk:count 	97924
attr interpolationmode  none
attr source  dropPkByQueue
attr title  "dropped packets, count"
scalar ExamTaskNetwork.MainRouter.ppp[0].queue 	dropPk:sum(packetBytes) 	70581738
attr interpolationmode  none
attr source  dropPkByQueue
attr title  "dropped packets, sum(packetBytes)"
scalar ExamTaskNetwork.MainRouter.ppp[0].queue 	queueLength:max 	50
attr interpolationmode  sample-hold
attr title  "queue length, max"
scalar ExamTaskNetwork.MainRouter.ppp[0].queue 	queueLength:timeavg 	1.9388042993477
attr interpolationmode  sample-hold
attr title  "queue length, timeavg"
scalar ExamTaskNetwork.MainRouter.ppp[0].queue 	rcvdPk:count 	1209446
attr interpolationmode  none
attr title  "received packets, count"
scalar ExamTaskNetwork.MainRouter.ppp[0].queue 	rcvdPk:sum(packetBytes) 	658469730
attr interpolationmode  none
attr title  "received packets, sum(packetBytes)"
scalar ExamTaskNetwork.MainRouter.ppp[0].ppp 	rcvdPkFromHL:count 	1111521
attr interpolationmode  none
attr source  packetReceivedFromUpper
attr title  "packets received from higher layer, count"
scalar ExamTaskNetwork.MainRouter.ppp[0].ppp 	rcvdPkFromHL:sum(packetBytes) 	587887966
attr interpolationmode  none
attr source  packetReceivedFromUpper
attr title  "packets received from higher layer, sum(packetBytes)"
scalar ExamTaskNetwork.MainRouter.ppp[0].ppp 	passedUpPk:count 	918860
attr interpolationmode  none
attr source  packetSentToUpper
attr title  "packets passed to higher layer, count"
scalar ExamTaskNetwork.MainRouter.ppp[0].ppp 	passedUpPk:sum(packetBytes) 	889935043
attr interpolationmode  none
attr source  packetSentToUpper
attr title  "packets passed to higher layer, sum(packetBytes)"
scalar ExamTaskNetwork.MainRouter.ppp[0].ppp 	txPk:count 	1111521
attr interpolationmode  none
attr source  packetSentToLower
attr title  "packets transmitted, count"
scalar ExamTaskNetwork.MainRouter.ppp[0].ppp 	txPk:sum(packetBytes) 	595668613
attr interpolationmode  none
attr source  packetSentToLower
attr title  "packets transmitted, sum(packetBytes)"
scalar ExamTaskNetwork.MainRouter.ppp[0].ppp 	droppedPkBitError:count 	0
attr interpolationmode  none
attr source  dropPkBitError
attr title  "packets dropped/bit error, count"
scalar ExamTaskNetwork.MainRouter.ppp[0].ppp 	droppedPkBitError:sum(packetBytes) 	0
attr interpolationmode  none
attr source  dropPkBitError
attr title  "packets dropped/bit error, sum(packetBytes)"
scalar ExamTaskNetwork.MainRouter.ppp[0].ppp 	droppedPkIfaceDown:count 	0
attr interpolationmode  none
attr source  dropPkIfaceDown
attr title  "packets dropped/interface down, count"
scalar ExamTaskNetwork.MainRouter.ppp[0].ppp 	droppedPkIfaceDown:sum(packetBytes) 	0
attr interpolationmode  none
attr source  dropPkIfaceDown
attr title  "packets dropped/interface down, sum(packetBytes)"
scalar ExamTaskNetwork.MainRouter.ppp[0].ppp 	rxPkOk:count 	918860
attr interpolationmode  none
attr source  rxPkOk
attr title  "packets received OK, count"
scalar ExamTaskNetwork.MainRouter.ppp[0].ppp 	rxPkOk:sum(packetBytes) 	896367063
attr interpolationmode  none
attr source  rxPkOk
attr title  "packets received OK, sum(packetBytes)"
scalar ExamTaskNetwork.MainRouter.ppp[0].ppp 	txState:timeavg 	0.39711182911619
attr interpolationmode  sample-hold
attr title  "tx state, timeavg"
scalar ExamTaskNetwork.Internet.networkLayer.arp 	initiatedARPResolution:count 	255
attr title  "ARP initiated resolutions, count"
scalar ExamTaskNetwork.Internet.networkLayer.arp 	sentReply:count 	2
attr title  "ARP replies sent, count"
scalar ExamTaskNetwork.Internet.networkLayer.arp 	sentReq:count 	255
attr title  "ARP request sent, count"
scalar ExamTaskNetwork.Internet.networkLayer.arp 	failedARPResolution:count 	0
attr title  "ARP failed resolutions, count"
scalar ExamTaskNetwork.Internet.networkLayer.arp 	completedARPResolution:count 	257
attr title  "ARP completed resolutions, count"
scalar ExamTaskNetwork.Internet.lo0.lo 	rcvdPkFromHL:count 	0
attr interpolationmode  none
attr source  packetReceivedFromUpper
attr title  "packets received from higher layer, count"
scalar ExamTaskNetwork.Internet.lo0.lo 	rcvdPkFromHL:sum(packetBytes) 	0
attr interpolationmode  none
attr source  packetReceivedFromUpper
attr title  "packets received from higher layer, sum(packetBytes)"
scalar ExamTaskNetwork.Internet.lo0.lo 	passedUpPk:count 	0
attr interpolationmode  none
attr source  packetSentToUpper
attr title  "packets passed to higher layer, count"
scalar ExamTaskNetwork.Internet.lo0.lo 	passedUpPk:sum(packetBytes) 	0
attr interpolationmode  none
attr source  packetSentToUpper
attr title  "packets passed to higher layer, sum(packetBytes)"
scalar ExamTaskNetwork.Internet.lo0.lo 	droppedPkBitError:count 	0
attr interpolationmode  none
attr source  dropPkBitError
attr title  "packets dropped/bit error, count"
scalar ExamTaskNetwork.Internet.lo0.lo 	droppedPkBitError:sum(packetBytes) 	0
attr interpolationmode  none
attr source  dropPkBitError
attr title  "packets dropped/bit error, sum(packetBytes)"
scalar ExamTaskNetwork.Internet.eth[0].mac 	"simulated time" 	1000.0000059701
scalar ExamTaskNetwork.Internet.eth[0].mac 	full-duplex 	1
scalar ExamTaskNetwork.Internet.eth[0].mac 	"frames/sec sent" 	1184.7759929267
scalar ExamTaskNetwork.Internet.eth[0].mac 	"frames/sec rcvd" 	1105.1489934021
scalar ExamTaskNetwork.Internet.eth[0].mac 	"bits/sec sent" 	5235231.7607449
scalar ExamTaskNetwork.Internet.eth[0].mac 	"bits/sec rcvd" 	5058620.4737993
scalar ExamTaskNetwork.Internet.eth[0].mac 	"rx channel idle (%)" 	94.870649990623
scalar ExamTaskNetwork.Internet.eth[0].mac 	"rx channel utilization (%)" 	5.1293500093769
scalar ExamTaskNetwork.Internet.eth[0].mac 	rxPkFromHL:count 	1184776
attr interpolationmode  none
attr source  rxPkFromHL
attr title  "packet bytes from higher layer, count"
scalar ExamTaskNetwork.Internet.eth[0].mac 	rxPkFromHL:sum(packetBytes) 	654403974
attr interpolationmode  none
attr source  rxPkFromHL
attr title  "packet bytes from higher layer, sum(packetBytes)"
scalar ExamTaskNetwork.Internet.eth[0].mac 	rxPausePkUnits:count 	0
attr interpolationmode  none
attr title  "pause units received, count"
scalar ExamTaskNetwork.Internet.eth[0].mac 	rxPausePkUnits:sum 	0
attr interpolationmode  none
attr title  "pause units received, sum"
scalar ExamTaskNetwork.Internet.eth[0].mac 	txPausePkUnits:count 	0
attr interpolationmode  none
attr title  "pause units sent, count"
scalar ExamTaskNetwork.Internet.eth[0].mac 	txPausePkUnits:sum 	0
attr interpolationmode  none
attr title  "pause units sent, sum"
scalar ExamTaskNetwork.Internet.eth[0].mac 	txPk:count 	1184776
attr interpolationmode  none
attr source  txPk
attr title  "packets transmitted, count"
scalar ExamTaskNetwork.Internet.eth[0].mac 	txPk:sum(packetBytes) 	654403974
attr interpolationmode  none
attr source  txPk
attr title  "packets transmitted, sum(packetBytes)"
scalar ExamTaskNetwork.Internet.eth[0].mac 	droppedPkNotForUs:count 	0
attr interpolationmode  none
attr source  dropPkNotForUs
attr title  "packets dropped/not for us, count"
scalar ExamTaskNetwork.Internet.eth[0].mac 	droppedPkNotForUs:sum(packetBytes) 	0
attr interpolationmode  none
attr source  dropPkNotForUs
attr title  "packets dropped/not for us, sum(packetBytes)"
scalar ExamTaskNetwork.Internet.eth[0].mac 	passedUpPk:count 	1105149
attr interpolationmode  none
attr source  packetSentToUpper
attr title  "packets passed to higher layer, count"
scalar ExamTaskNetwork.Internet.eth[0].mac 	passedUpPk:sum(packetBytes) 	632327563
attr interpolationmode  none
attr source  packetSentToUpper
attr title  "packets passed to higher layer, sum(packetBytes)"
scalar ExamTaskNetwork.Internet.eth[0].mac 	droppedPkBitError:count 	0
attr interpolationmode  none
attr source  dropPkBitError
attr title  "packets dropped/bit error, count"
scalar ExamTaskNetwork.Internet.eth[0].mac 	droppedPkBitError:sum(packetBytes) 	0
attr interpolationmode  none
attr source  dropPkBitError
attr title  "packets dropped/bit error, sum(packetBytes)"
scalar ExamTaskNetwork.Internet.eth[0].mac 	droppedPkIfaceDown:count 	0
attr interpolationmode  none
attr source  dropPkIfaceDown
attr title  "packets dropped/interface down, count"
scalar ExamTaskNetwork.Internet.eth[0].mac 	droppedPkIfaceDown:sum(packetBytes) 	0
attr interpolationmode  none
attr source  dropPkIfaceDown
attr title  "packets dropped/interface down, sum(packetBytes)"
scalar ExamTaskNetwork.Internet.eth[0].mac 	rxPkOk:count 	1105149
attr interpolationmode  none
attr source  rxPkOk
attr title  "packets received OK, count"
scalar ExamTaskNetwork.Internet.eth[0].mac 	rxPkOk:sum(packetBytes) 	632327563
attr interpolationmode  none
attr source  rxPkOk
attr title  "packets received OK, sum(packetBytes)"
scalar ExamTaskNetwork.Internet.eth[0].encap 	pauseSent:count 	0
attr title  "pause sent, count"
scalar ExamTaskNetwork.Internet.eth[0].encap 	pauseSent:sum 	0
attr title  "pause sent, sum"
scalar ExamTaskNetwork.Internet.eth[0].encap 	decapPk:count 	1105149
attr interpolationmode  none
attr source  decapPk
attr title  "packets decapsulated, count"
scalar ExamTaskNetwork.Internet.eth[0].encap 	decapPk:sum(packetBytes) 	602801583
attr interpolationmode  none
attr source  decapPk
attr title  "packets decapsulated, sum(packetBytes)"
scalar ExamTaskNetwork.Internet.eth[0].encap 	encapPk:count 	1184776
attr interpolationmode  none
attr source  encapPk
attr title  "packets encapsulated, count"
scalar ExamTaskNetwork.Internet.eth[0].encap 	encapPk:sum(packetBytes) 	622857230
attr interpolationmode  none
attr source  encapPk
attr title  "packets encapsulated, sum(packetBytes)"
scalar ExamTaskNetwork.Internet.tcpApp[0] 	sentPk:count 	720
attr interpolationmode  none
attr source  sentPk
attr title  "packets sent, count"
scalar ExamTaskNetwork.Internet.tcpApp[0] 	sentPk:sum(packetBytes) 	452774921
attr interpolationmode  none
attr source  sentPk
attr title  "packets sent, sum(packetBytes)"
scalar ExamTaskNetwork.Internet.tcpApp[0] 	rcvdPk:count 	720
attr interpolationmode  none
attr source  rcvdPk
attr title  "packets received, count"
scalar ExamTaskNetwork.Internet.tcpApp[0] 	rcvdPk:sum(packetBytes) 	5898240
attr interpolationmode  none
attr source  rcvdPk
attr title  "packets received, sum(packetBytes)"
statistic ExamTaskNetwork.Internet.tcpApp[0] 	endToEndDelay:histogram
field count 720
field mean 0.63144362846853
field stddev 1.385786972821
field sum 454.63941249734
field sqrsum 1667.8507392472
field min 0.207752102148
field max 21.310409571115
attr interpolationmode  none
attr source  messageAge(rcvdPk)
attr title  "end-to-end delay, histogram"
attr unit  s
bin	-INF	0
bin	-4.339263189163	0
bin	-3.7329932920306	0
bin	-3.1267233948982	0
bin	-2.5204534977658	0
bin	-1.9141836006334	0
bin	-1.307913703501	0
bin	-0.7016438063686	0
bin	-0.0953739092362	650
bin	0.5108959878962	0
bin	1.1171658850286	1
bin	1.723435782161	1
bin	2.3297056792934	4
bin	2.9359755764258	56
bin	3.5422454735582	0
bin	4.1485153706906	0
bin	4.754785267823	0
bin	5.3610551649554	0
bin	5.9673250620878	0
bin	6.5735949592202	0
bin	7.1798648563526	0
bin	7.786134753485	0
bin	8.3924046506174	4
bin	8.9986745477498	3
bin	9.6049444448822	0
bin	10.211214342015	0
bin	10.817484239147	0
bin	11.423754136279	0
bin	12.030024033412	0
bin	12.636293930544	0
bin	13.242563827677	0
bin	13.848833724809	1
scalar ExamTaskNetwork.Internet.tcpApp[1] 	rcvdPk:count 	362562
attr interpolationmode  none
attr source  rcvdPk
attr title  "packets received, count"
scalar ExamTaskNetwork.Internet.tcpApp[1] 	rcvdPk:sum(packetBytes) 	559327211
attr interpolationmode  none
attr source  rcvdPk
attr title  "packets received, sum(packetBytes)"
statistic ExamTaskNetwork.Internet.tcpApp[1] 	endToEndDelay:histogram
field count 362562
field mean 0
field stddev 0
field sum 0
field sqrsum 0
field min 0
field max 0
attr interpolationmode  none
attr source  messageAge(rcvdPk)
attr title  "end-to-end delay, histogram"
attr unit  s
bin	-INF	0
bin	-0.5	0
bin	-0.46666666666667	0
bin	-0.43333333333333	0
bin	-0.4	0
bin	-0.36666666666667	0
bin	-0.33333333333333	0
bin	-0.3	0
bin	-0.26666666666667	0
bin	-0.23333333333333	0
bin	-0.2	0
bin	-0.16666666666667	0
bin	-0.13333333333333	0
bin	-0.1	0
bin	-0.066666666666667	0
bin	-0.033333333333333	0
bin	0	362562
bin	0.033333333333333	0
bin	0.066666666666667	0
bin	0.1	0
bin	0.13333333333333	0
bin	0.16666666666667	0
bin	0.2	0
bin	0.23333333333333	0
bin	0.26666666666667	0
bin	0.3	0
bin	0.33333333333333	0
bin	0.36666666666667	0
bin	0.4	0
bin	0.43333333333333	0
bin	0.46666666666667	0
bin	0.5	0
