version 2
run ExamTaskNetwork_no_CCTV-112-20160819-22:21:29-27086
attr configname ExamTaskNetwork_no_CCTV
attr datetime 20160819-22:21:29
attr experiment ExamTaskNetwork_no_CCTV
attr inifile omnetpp.ini
attr iterationvars "$simtime=1000, $0=50"
attr iterationvars2 "$simtime=1000, $0=50, $repetition=7"
attr measurement "$simtime=1000, $0=50"
attr network ExamTaskNetwork_no_CCTV
attr processid 27086
attr repetition 7
attr replication #7
attr resultdir /utmnt/ut/si/siah1097
attr runnumber 112
attr seedset 112
attr simtime 1000

scalar . 	simtime 	1000
scalar ExamTaskNetwork_no_CCTV.ConferenceLaptop.networkLayer.arp 	initiatedARPResolution:count 	9
attr title  "ARP initiated resolutions, count"
scalar ExamTaskNetwork_no_CCTV.ConferenceLaptop.networkLayer.arp 	sentReply:count 	8
attr title  "ARP replies sent, count"
scalar ExamTaskNetwork_no_CCTV.ConferenceLaptop.networkLayer.arp 	sentReq:count 	10
attr title  "ARP request sent, count"
scalar ExamTaskNetwork_no_CCTV.ConferenceLaptop.networkLayer.arp 	failedARPResolution:count 	0
attr title  "ARP failed resolutions, count"
scalar ExamTaskNetwork_no_CCTV.ConferenceLaptop.networkLayer.arp 	completedARPResolution:count 	252
attr title  "ARP completed resolutions, count"
scalar ExamTaskNetwork_no_CCTV.ConferenceLaptop.lo0.lo 	rcvdPkFromHL:count 	0
attr interpolationmode  none
attr source  packetReceivedFromUpper
attr title  "packets received from higher layer, count"
scalar ExamTaskNetwork_no_CCTV.ConferenceLaptop.lo0.lo 	rcvdPkFromHL:sum(packetBytes) 	0
attr interpolationmode  none
attr source  packetReceivedFromUpper
attr title  "packets received from higher layer, sum(packetBytes)"
scalar ExamTaskNetwork_no_CCTV.ConferenceLaptop.lo0.lo 	passedUpPk:count 	0
attr interpolationmode  none
attr source  packetSentToUpper
attr title  "packets passed to higher layer, count"
scalar ExamTaskNetwork_no_CCTV.ConferenceLaptop.lo0.lo 	passedUpPk:sum(packetBytes) 	0
attr interpolationmode  none
attr source  packetSentToUpper
attr title  "packets passed to higher layer, sum(packetBytes)"
scalar ExamTaskNetwork_no_CCTV.ConferenceLaptop.lo0.lo 	droppedPkBitError:count 	0
attr interpolationmode  none
attr source  dropPkBitError
attr title  "packets dropped/bit error, count"
scalar ExamTaskNetwork_no_CCTV.ConferenceLaptop.lo0.lo 	droppedPkBitError:sum(packetBytes) 	0
attr interpolationmode  none
attr source  dropPkBitError
attr title  "packets dropped/bit error, sum(packetBytes)"
scalar ExamTaskNetwork_no_CCTV.ConferenceLaptop.wlan[0].agent 	dropConfirm:count 	0
attr title  "dropped confirms, count"
scalar ExamTaskNetwork_no_CCTV.ConferenceLaptop.wlan[0].agent 	acceptConfirm:count 	42
attr title  "accepted confirms, count"
scalar ExamTaskNetwork_no_CCTV.ConferenceLaptop.wlan[0].agent 	sentRequest:count 	42
attr title  "sent requests, count"
scalar ExamTaskNetwork_no_CCTV.ConferenceLaptop.wlan[0].mgmt 	dropPkByQueue:count 	0
attr interpolationmode  none
attr source  dropPkByQueue
attr title  "packets dropped by queue, count"
scalar ExamTaskNetwork_no_CCTV.ConferenceLaptop.wlan[0].mgmt 	dropPkByQueue:sum(packetBytes) 	0
attr interpolationmode  none
attr source  dropPkByQueue
attr title  "packets dropped by queue, sum(packetBytes)"
scalar ExamTaskNetwork_no_CCTV.ConferenceLaptop.wlan[0].mgmt 	dataQueueLen:max 	24
attr interpolationmode  sample-hold
attr title  "data queue length, max"
scalar ExamTaskNetwork_no_CCTV.ConferenceLaptop.wlan[0].mgmt 	dataQueueLen:timeavg 	0.002155995522989
attr interpolationmode  sample-hold
attr title  "data queue length, timeavg"
scalar ExamTaskNetwork_no_CCTV.ConferenceLaptop.wlan[0].mac 	"number of received packets" 	24383
scalar ExamTaskNetwork_no_CCTV.ConferenceLaptop.wlan[0].mac 	"number of collisions" 	43142
scalar ExamTaskNetwork_no_CCTV.ConferenceLaptop.wlan[0].mac 	"number of internal collisions" 	0
scalar ExamTaskNetwork_no_CCTV.ConferenceLaptop.wlan[0].mac 	"number of retry for AC 0" 	8773
scalar ExamTaskNetwork_no_CCTV.ConferenceLaptop.wlan[0].mac 	"sent and received bits" 	291545744
scalar ExamTaskNetwork_no_CCTV.ConferenceLaptop.wlan[0].mac 	"sent packet within AC 0" 	24849
scalar ExamTaskNetwork_no_CCTV.ConferenceLaptop.wlan[0].mac 	"sent in TXOP " 	0
scalar ExamTaskNetwork_no_CCTV.ConferenceLaptop.wlan[0].mac 	"sentWithoutRetry AC 0" 	18544
scalar ExamTaskNetwork_no_CCTV.ConferenceLaptop.wlan[0].mac 	"numGivenUp AC 0" 	7
scalar ExamTaskNetwork_no_CCTV.ConferenceLaptop.wlan[0].mac 	"numDropped AC 0" 	0
scalar ExamTaskNetwork_no_CCTV.ConferenceLaptop.wlan[0].mac 	rcvdPkFromHL:count 	24870
attr interpolationmode  none
attr source  packetReceivedFromUpper
attr title  "packets received from higher layer, count"
scalar ExamTaskNetwork_no_CCTV.ConferenceLaptop.wlan[0].mac 	rcvdPkFromHL:sum(packetBytes) 	36453508
attr interpolationmode  none
attr source  packetReceivedFromUpper
attr title  "packets received from higher layer, sum(packetBytes)"
scalar ExamTaskNetwork_no_CCTV.ConferenceLaptop.wlan[0].mac 	passedUpPk:count 	34482
attr interpolationmode  none
attr source  packetSentToUpper
attr title  "packets passed to higher layer, count"
scalar ExamTaskNetwork_no_CCTV.ConferenceLaptop.wlan[0].mac 	passedUpPk:sum(packetBytes) 	36548338
attr interpolationmode  none
attr source  packetSentToUpper
attr title  "packets passed to higher layer, sum(packetBytes)"
scalar ExamTaskNetwork_no_CCTV.ConferenceLaptop.wlan[0].mac 	rcvdPkFromLL:count 	3748276
attr interpolationmode  none
attr source  packetReceivedFromLower
attr title  "packets received from lower layer, count"
scalar ExamTaskNetwork_no_CCTV.ConferenceLaptop.wlan[0].mac 	rcvdPkFromLL:sum(packetBytes) 	1391734348
attr interpolationmode  none
attr source  packetReceivedFromLower
attr title  "packets received from lower layer, sum(packetBytes)"
scalar ExamTaskNetwork_no_CCTV.ConferenceLaptop.wlan[0].mac 	sentDownPk:count 	58026
attr interpolationmode  none
attr source  packetSentToLower
attr title  "packets sent to lower layer, count"
scalar ExamTaskNetwork_no_CCTV.ConferenceLaptop.wlan[0].mac 	sentDownPk:sum(packetBytes) 	49623688
attr interpolationmode  none
attr source  packetSentToLower
attr title  "packets sent to lower layer, sum(packetBytes)"
scalar ExamTaskNetwork_no_CCTV.ConferenceLaptop.wlan[0].radio 	lossRate:min 	0
attr interpolationmode  backward-sample-hold
attr title  "packet loss rate, min"
scalar ExamTaskNetwork_no_CCTV.ConferenceLaptop.wlan[0].radio 	lossRate:max 	0.26
attr interpolationmode  backward-sample-hold
attr title  "packet loss rate, max"
scalar ExamTaskNetwork_no_CCTV.ConferenceLaptop.wlan[0].radio 	lossRate:timeavg 	0.011539254377241
attr interpolationmode  backward-sample-hold
attr title  "packet loss rate, timeavg"
statistic ExamTaskNetwork_no_CCTV.ConferenceLaptop.wlan[0].radio 	channelNo:histogram
field count 1
field mean 0
field stddev -nan
field sum 0
field sqrsum 0
field min 0
field max 0
attr interpolationmode  sample-hold
attr title  "channel no, histogram"
bin	-INF	0
bin	-0.5	0
bin	-0.46666666666667	0
bin	-0.43333333333333	0
bin	-0.4	0
bin	-0.36666666666667	0
bin	-0.33333333333333	0
bin	-0.3	0
bin	-0.26666666666667	0
bin	-0.23333333333333	0
bin	-0.2	0
bin	-0.16666666666667	0
bin	-0.13333333333333	0
bin	-0.1	0
bin	-0.066666666666667	0
bin	-0.033333333333333	0
bin	0	1
bin	0.033333333333333	0
bin	0.066666666666667	0
bin	0.1	0
bin	0.13333333333333	0
bin	0.16666666666667	0
bin	0.2	0
bin	0.23333333333333	0
bin	0.26666666666667	0
bin	0.3	0
bin	0.33333333333333	0
bin	0.36666666666667	0
bin	0.4	0
bin	0.43333333333333	0
bin	0.46666666666667	0
bin	0.5	0
scalar ExamTaskNetwork_no_CCTV.ConferenceLaptop.wlan[0].radio 	radioState:count 	7621973
attr interpolationmode  sample-hold
attr title  "radio state (enum), count"
scalar ExamTaskNetwork_no_CCTV.ConferenceLaptop.wlan[0].radio 	bitrate:min 	54000000
attr interpolationmode  sample-hold
attr title  "tx bitrate, min"
attr unit  bps
scalar ExamTaskNetwork_no_CCTV.ConferenceLaptop.wlan[0].radio 	bitrate:max 	54000000
attr interpolationmode  sample-hold
attr title  "tx bitrate, max"
attr unit  bps
scalar ExamTaskNetwork_no_CCTV.ConferenceLaptop.wlan[0].radio 	bitrate:timeavg 	54000000
attr interpolationmode  sample-hold
attr title  "tx bitrate, timeavg"
attr unit  bps
scalar ExamTaskNetwork_no_CCTV.ConferenceLaptop.udpApp[0] 	"packets sent" 	24963
scalar ExamTaskNetwork_no_CCTV.ConferenceLaptop.udpApp[0] 	"packets received" 	24177
scalar ExamTaskNetwork_no_CCTV.ConferenceLaptop.udpApp[0] 	lateRatio 	0.00049633951857686
scalar ExamTaskNetwork_no_CCTV.ConferenceLaptop.udpApp[0] 	"discarded packets" 	12
statistic ExamTaskNetwork_no_CCTV.ConferenceLaptop.udpApp[0] 	endToEndDelay:stats
field count 24177
field mean 0.052231318725535
field stddev 0.014344031107343
field sum 1262.7965928273
field sqrsum 70.931773023483
field min 0.016438467369
field max 0.136686080025
attr source  VoIPPacketDelay
attr title  "VoIP Packet End-to-End Delay, stats"
attr unit  s
scalar ExamTaskNetwork_no_CCTV.ConferenceLaptop.udpApp[0] 	sentPk:count 	24963
attr interpolationmode  none
attr source  sentPk
attr title  "packets sent, count"
scalar ExamTaskNetwork_no_CCTV.ConferenceLaptop.udpApp[0] 	sentPk:sum(packetBytes) 	34948200
attr interpolationmode  none
attr source  sentPk
attr title  "packets sent, sum(packetBytes)"
scalar ExamTaskNetwork_no_CCTV.ConferenceLaptop.udpApp[0] 	rcvdPk:count 	24177
attr interpolationmode  none
attr source  rcvdPk
attr title  "packets received, count"
scalar ExamTaskNetwork_no_CCTV.ConferenceLaptop.udpApp[0] 	rcvdPk:sum(packetBytes) 	33847800
attr interpolationmode  none
attr source  rcvdPk
attr title  "packets received, sum(packetBytes)"
statistic ExamTaskNetwork_no_CCTV.ConferenceLaptop.udpApp[0] 	rcvdPkLifetime:stats
field count 24177
field mean 0.052231318725535
field stddev 0.014344031107343
field sum 1262.7965928273
field sqrsum 70.931773023483
field min 0.016438467369
field max 0.136686080025
attr interpolationmode  none
attr source  messageAge(rcvdPk)
attr title  "received packet lifetime, stats"
attr unit  s
scalar ExamTaskNetwork_no_CCTV.ConferenceLaptop.udp 	droppedPkBadChecksum:count 	0
attr interpolationmode  none
attr title  "packets dropped (checksum error), count"
scalar ExamTaskNetwork_no_CCTV.ConferenceLaptop.udp 	droppedPkWrongPort:count 	0
attr interpolationmode  none
attr title  "packets dropped (wrong port), count"
scalar ExamTaskNetwork_no_CCTV.ConferenceLaptop.udp 	passedUpPk:count 	24177
attr interpolationmode  none
attr title  "packets passed up, count"
scalar ExamTaskNetwork_no_CCTV.ConferenceLaptop.udp 	sentPk:count 	24963
attr interpolationmode  none
attr source  sentPk
attr title  "packets sent, count"
scalar ExamTaskNetwork_no_CCTV.ConferenceLaptop.udp 	sentPk:sum(packetBytes) 	35147904
attr interpolationmode  none
attr source  sentPk
attr title  "packets sent, sum(packetBytes)"
scalar ExamTaskNetwork_no_CCTV.ConferenceLaptop.udp 	rcvdPk:count 	24177
attr interpolationmode  none
attr source  rcvdPk
attr title  "packets received, count"
scalar ExamTaskNetwork_no_CCTV.ConferenceLaptop.udp 	rcvdPk:sum(packetBytes) 	34041216
attr interpolationmode  none
attr source  rcvdPk
attr title  "packets received, sum(packetBytes)"
scalar ExamTaskNetwork_no_CCTV.FTPLaptop.networkLayer.arp 	initiatedARPResolution:count 	9
attr title  "ARP initiated resolutions, count"
scalar ExamTaskNetwork_no_CCTV.FTPLaptop.networkLayer.arp 	sentReply:count 	6
attr title  "ARP replies sent, count"
scalar ExamTaskNetwork_no_CCTV.FTPLaptop.networkLayer.arp 	sentReq:count 	13
attr title  "ARP request sent, count"
scalar ExamTaskNetwork_no_CCTV.FTPLaptop.networkLayer.arp 	failedARPResolution:count 	0
attr title  "ARP failed resolutions, count"
scalar ExamTaskNetwork_no_CCTV.FTPLaptop.networkLayer.arp 	completedARPResolution:count 	280
attr title  "ARP completed resolutions, count"
scalar ExamTaskNetwork_no_CCTV.FTPLaptop.lo0.lo 	rcvdPkFromHL:count 	0
attr interpolationmode  none
attr source  packetReceivedFromUpper
attr title  "packets received from higher layer, count"
scalar ExamTaskNetwork_no_CCTV.FTPLaptop.lo0.lo 	rcvdPkFromHL:sum(packetBytes) 	0
attr interpolationmode  none
attr source  packetReceivedFromUpper
attr title  "packets received from higher layer, sum(packetBytes)"
scalar ExamTaskNetwork_no_CCTV.FTPLaptop.lo0.lo 	passedUpPk:count 	0
attr interpolationmode  none
attr source  packetSentToUpper
attr title  "packets passed to higher layer, count"
scalar ExamTaskNetwork_no_CCTV.FTPLaptop.lo0.lo 	passedUpPk:sum(packetBytes) 	0
attr interpolationmode  none
attr source  packetSentToUpper
attr title  "packets passed to higher layer, sum(packetBytes)"
scalar ExamTaskNetwork_no_CCTV.FTPLaptop.lo0.lo 	droppedPkBitError:count 	0
attr interpolationmode  none
attr source  dropPkBitError
attr title  "packets dropped/bit error, count"
scalar ExamTaskNetwork_no_CCTV.FTPLaptop.lo0.lo 	droppedPkBitError:sum(packetBytes) 	0
attr interpolationmode  none
attr source  dropPkBitError
attr title  "packets dropped/bit error, sum(packetBytes)"
scalar ExamTaskNetwork_no_CCTV.FTPLaptop.wlan[0].agent 	dropConfirm:count 	0
attr title  "dropped confirms, count"
scalar ExamTaskNetwork_no_CCTV.FTPLaptop.wlan[0].agent 	acceptConfirm:count 	42
attr title  "accepted confirms, count"
scalar ExamTaskNetwork_no_CCTV.FTPLaptop.wlan[0].agent 	sentRequest:count 	42
attr title  "sent requests, count"
scalar ExamTaskNetwork_no_CCTV.FTPLaptop.wlan[0].mgmt 	dropPkByQueue:count 	2185
attr interpolationmode  none
attr source  dropPkByQueue
attr title  "packets dropped by queue, count"
scalar ExamTaskNetwork_no_CCTV.FTPLaptop.wlan[0].mgmt 	dropPkByQueue:sum(packetBytes) 	3382350
attr interpolationmode  none
attr source  dropPkByQueue
attr title  "packets dropped by queue, sum(packetBytes)"
scalar ExamTaskNetwork_no_CCTV.FTPLaptop.wlan[0].mgmt 	dataQueueLen:max 	50
attr interpolationmode  sample-hold
attr title  "data queue length, max"
scalar ExamTaskNetwork_no_CCTV.FTPLaptop.wlan[0].mgmt 	dataQueueLen:timeavg 	3.6668725056882
attr interpolationmode  sample-hold
attr title  "data queue length, timeavg"
scalar ExamTaskNetwork_no_CCTV.FTPLaptop.wlan[0].mac 	"number of received packets" 	349948
scalar ExamTaskNetwork_no_CCTV.FTPLaptop.wlan[0].mac 	"number of collisions" 	7728
scalar ExamTaskNetwork_no_CCTV.FTPLaptop.wlan[0].mac 	"number of internal collisions" 	0
scalar ExamTaskNetwork_no_CCTV.FTPLaptop.wlan[0].mac 	"number of retry for AC 0" 	74578
scalar ExamTaskNetwork_no_CCTV.FTPLaptop.wlan[0].mac 	"sent and received bits" 	4700850240
scalar ExamTaskNetwork_no_CCTV.FTPLaptop.wlan[0].mac 	"sent packet within AC 0" 	379705
scalar ExamTaskNetwork_no_CCTV.FTPLaptop.wlan[0].mac 	"sent in TXOP " 	0
scalar ExamTaskNetwork_no_CCTV.FTPLaptop.wlan[0].mac 	"sentWithoutRetry AC 0" 	320474
scalar ExamTaskNetwork_no_CCTV.FTPLaptop.wlan[0].mac 	"numGivenUp AC 0" 	6
scalar ExamTaskNetwork_no_CCTV.FTPLaptop.wlan[0].mac 	"numDropped AC 0" 	0
scalar ExamTaskNetwork_no_CCTV.FTPLaptop.wlan[0].mac 	rcvdPkFromHL:count 	379727
attr interpolationmode  none
attr source  packetReceivedFromUpper
attr title  "packets received from higher layer, count"
scalar ExamTaskNetwork_no_CCTV.FTPLaptop.wlan[0].mac 	rcvdPkFromHL:sum(packetBytes) 	587618664
attr interpolationmode  none
attr source  packetReceivedFromUpper
attr title  "packets received from higher layer, sum(packetBytes)"
scalar ExamTaskNetwork_no_CCTV.FTPLaptop.wlan[0].mac 	passedUpPk:count 	360045
attr interpolationmode  none
attr source  packetSentToUpper
attr title  "packets passed to higher layer, count"
scalar ExamTaskNetwork_no_CCTV.FTPLaptop.wlan[0].mac 	passedUpPk:sum(packetBytes) 	29473108
attr interpolationmode  none
attr source  packetSentToUpper
attr title  "packets passed to higher layer, sum(packetBytes)"
scalar ExamTaskNetwork_no_CCTV.FTPLaptop.wlan[0].mac 	rcvdPkFromLL:count 	3002051
attr interpolationmode  none
attr source  packetReceivedFromLower
attr title  "packets received from lower layer, count"
scalar ExamTaskNetwork_no_CCTV.FTPLaptop.wlan[0].mac 	rcvdPkFromLL:sum(packetBytes) 	766152536
attr interpolationmode  none
attr source  packetReceivedFromLower
attr title  "packets received from lower layer, sum(packetBytes)"
scalar ExamTaskNetwork_no_CCTV.FTPLaptop.wlan[0].mac 	sentDownPk:count 	804251
attr interpolationmode  none
attr source  packetSentToLower
attr title  "packets sent to lower layer, count"
scalar ExamTaskNetwork_no_CCTV.FTPLaptop.wlan[0].mac 	sentDownPk:sum(packetBytes) 	707882429
attr interpolationmode  none
attr source  packetSentToLower
attr title  "packets sent to lower layer, sum(packetBytes)"
scalar ExamTaskNetwork_no_CCTV.FTPLaptop.wlan[0].radio 	lossRate:min 	0
attr interpolationmode  backward-sample-hold
attr title  "packet loss rate, min"
scalar ExamTaskNetwork_no_CCTV.FTPLaptop.wlan[0].radio 	lossRate:max 	0.28
attr interpolationmode  backward-sample-hold
attr title  "packet loss rate, max"
scalar ExamTaskNetwork_no_CCTV.FTPLaptop.wlan[0].radio 	lossRate:timeavg 	0.0024866788405283
attr interpolationmode  backward-sample-hold
attr title  "packet loss rate, timeavg"
statistic ExamTaskNetwork_no_CCTV.FTPLaptop.wlan[0].radio 	channelNo:histogram
field count 1
field mean 0
field stddev -nan
field sum 0
field sqrsum 0
field min 0
field max 0
attr interpolationmode  sample-hold
attr title  "channel no, histogram"
bin	-INF	0
bin	-0.5	0
bin	-0.46666666666667	0
bin	-0.43333333333333	0
bin	-0.4	0
bin	-0.36666666666667	0
bin	-0.33333333333333	0
bin	-0.3	0
bin	-0.26666666666667	0
bin	-0.23333333333333	0
bin	-0.2	0
bin	-0.16666666666667	0
bin	-0.13333333333333	0
bin	-0.1	0
bin	-0.066666666666667	0
bin	-0.033333333333333	0
bin	0	1
bin	0.033333333333333	0
bin	0.066666666666667	0
bin	0.1	0
bin	0.13333333333333	0
bin	0.16666666666667	0
bin	0.2	0
bin	0.23333333333333	0
bin	0.26666666666667	0
bin	0.3	0
bin	0.33333333333333	0
bin	0.36666666666667	0
bin	0.4	0
bin	0.43333333333333	0
bin	0.46666666666667	0
bin	0.5	0
scalar ExamTaskNetwork_no_CCTV.FTPLaptop.wlan[0].radio 	radioState:count 	7658544
attr interpolationmode  sample-hold
attr title  "radio state (enum), count"
scalar ExamTaskNetwork_no_CCTV.FTPLaptop.wlan[0].radio 	bitrate:min 	54000000
attr interpolationmode  sample-hold
attr title  "tx bitrate, min"
attr unit  bps
scalar ExamTaskNetwork_no_CCTV.FTPLaptop.wlan[0].radio 	bitrate:max 	54000000
attr interpolationmode  sample-hold
attr title  "tx bitrate, max"
attr unit  bps
scalar ExamTaskNetwork_no_CCTV.FTPLaptop.wlan[0].radio 	bitrate:timeavg 	54000000
attr interpolationmode  sample-hold
attr title  "tx bitrate, timeavg"
attr unit  bps
scalar ExamTaskNetwork_no_CCTV.FTPLaptop.tcpApp[0] 	bytesRcvd 	0
scalar ExamTaskNetwork_no_CCTV.FTPLaptop.tcpApp[0] 	bytesSent 	1778384896
scalar ExamTaskNetwork_no_CCTV.FTPLaptop.tcpApp[0] 	sentPk:count 	1
attr interpolationmode  none
attr source  sentPk
attr title  "packets sent, count"
scalar ExamTaskNetwork_no_CCTV.FTPLaptop.tcpApp[0] 	sentPk:sum(packetBytes) 	1778384896
attr interpolationmode  none
attr source  sentPk
attr title  "packets sent, sum(packetBytes)"
scalar ExamTaskNetwork_no_CCTV.FTPLaptop.tcpApp[0] 	rcvdPk:count 	0
attr interpolationmode  none
attr source  rcvdPk
attr title  "packets received, count"
scalar ExamTaskNetwork_no_CCTV.FTPLaptop.tcpApp[0] 	rcvdPk:sum(packetBytes) 	0
attr interpolationmode  none
attr source  rcvdPk
attr title  "packets received, sum(packetBytes)"
statistic ExamTaskNetwork_no_CCTV.FTPLaptop.tcpApp[0] 	endToEndDelay:histogram
field count 0
field mean -nan
field stddev -nan
field sum 0
field sqrsum 0
field min -nan
field max -nan
attr interpolationmode  none
attr source  messageAge(rcvdPk)
attr title  "end-to-end delay, histogram"
attr unit  s
bin	-INF	0
bin	-0.5	0
bin	-0.46666666666667	0
bin	-0.43333333333333	0
bin	-0.4	0
bin	-0.36666666666667	0
bin	-0.33333333333333	0
bin	-0.3	0
bin	-0.26666666666667	0
bin	-0.23333333333333	0
bin	-0.2	0
bin	-0.16666666666667	0
bin	-0.13333333333333	0
bin	-0.1	0
bin	-0.066666666666667	0
bin	-0.033333333333333	0
bin	0	0
bin	0.033333333333333	0
bin	0.066666666666667	0
bin	0.1	0
bin	0.13333333333333	0
bin	0.16666666666667	0
bin	0.2	0
bin	0.23333333333333	0
bin	0.26666666666667	0
bin	0.3	0
bin	0.33333333333333	0
bin	0.36666666666667	0
bin	0.4	0
bin	0.43333333333333	0
bin	0.46666666666667	0
bin	0.5	0
scalar ExamTaskNetwork_no_CCTV.BrowsingLaptop[0].networkLayer.arp 	initiatedARPResolution:count 	9
attr title  "ARP initiated resolutions, count"
scalar ExamTaskNetwork_no_CCTV.BrowsingLaptop[0].networkLayer.arp 	sentReply:count 	6
attr title  "ARP replies sent, count"
scalar ExamTaskNetwork_no_CCTV.BrowsingLaptop[0].networkLayer.arp 	sentReq:count 	9
attr title  "ARP request sent, count"
scalar ExamTaskNetwork_no_CCTV.BrowsingLaptop[0].networkLayer.arp 	failedARPResolution:count 	0
attr title  "ARP failed resolutions, count"
scalar ExamTaskNetwork_no_CCTV.BrowsingLaptop[0].networkLayer.arp 	completedARPResolution:count 	219
attr title  "ARP completed resolutions, count"
scalar ExamTaskNetwork_no_CCTV.BrowsingLaptop[0].lo0.lo 	rcvdPkFromHL:count 	0
attr interpolationmode  none
attr source  packetReceivedFromUpper
attr title  "packets received from higher layer, count"
scalar ExamTaskNetwork_no_CCTV.BrowsingLaptop[0].lo0.lo 	rcvdPkFromHL:sum(packetBytes) 	0
attr interpolationmode  none
attr source  packetReceivedFromUpper
attr title  "packets received from higher layer, sum(packetBytes)"
scalar ExamTaskNetwork_no_CCTV.BrowsingLaptop[0].lo0.lo 	passedUpPk:count 	0
attr interpolationmode  none
attr source  packetSentToUpper
attr title  "packets passed to higher layer, count"
scalar ExamTaskNetwork_no_CCTV.BrowsingLaptop[0].lo0.lo 	passedUpPk:sum(packetBytes) 	0
attr interpolationmode  none
attr source  packetSentToUpper
attr title  "packets passed to higher layer, sum(packetBytes)"
scalar ExamTaskNetwork_no_CCTV.BrowsingLaptop[0].lo0.lo 	droppedPkBitError:count 	0
attr interpolationmode  none
attr source  dropPkBitError
attr title  "packets dropped/bit error, count"
scalar ExamTaskNetwork_no_CCTV.BrowsingLaptop[0].lo0.lo 	droppedPkBitError:sum(packetBytes) 	0
attr interpolationmode  none
attr source  dropPkBitError
attr title  "packets dropped/bit error, sum(packetBytes)"
scalar ExamTaskNetwork_no_CCTV.BrowsingLaptop[0].wlan[0].agent 	dropConfirm:count 	0
attr title  "dropped confirms, count"
scalar ExamTaskNetwork_no_CCTV.BrowsingLaptop[0].wlan[0].agent 	acceptConfirm:count 	42
attr title  "accepted confirms, count"
scalar ExamTaskNetwork_no_CCTV.BrowsingLaptop[0].wlan[0].agent 	sentRequest:count 	42
attr title  "sent requests, count"
scalar ExamTaskNetwork_no_CCTV.BrowsingLaptop[0].wlan[0].mgmt 	dropPkByQueue:count 	0
attr interpolationmode  none
attr source  dropPkByQueue
attr title  "packets dropped by queue, count"
scalar ExamTaskNetwork_no_CCTV.BrowsingLaptop[0].wlan[0].mgmt 	dropPkByQueue:sum(packetBytes) 	0
attr interpolationmode  none
attr source  dropPkByQueue
attr title  "packets dropped by queue, sum(packetBytes)"
scalar ExamTaskNetwork_no_CCTV.BrowsingLaptop[0].wlan[0].mgmt 	dataQueueLen:max 	3
attr interpolationmode  sample-hold
attr title  "data queue length, max"
scalar ExamTaskNetwork_no_CCTV.BrowsingLaptop[0].wlan[0].mgmt 	dataQueueLen:timeavg 	4.283989081435e-06
attr interpolationmode  sample-hold
attr title  "data queue length, timeavg"
scalar ExamTaskNetwork_no_CCTV.BrowsingLaptop[0].wlan[0].mac 	"number of received packets" 	12612
scalar ExamTaskNetwork_no_CCTV.BrowsingLaptop[0].wlan[0].mac 	"number of collisions" 	49220
scalar ExamTaskNetwork_no_CCTV.BrowsingLaptop[0].wlan[0].mac 	"number of internal collisions" 	0
scalar ExamTaskNetwork_no_CCTV.BrowsingLaptop[0].wlan[0].mac 	"number of retry for AC 0" 	83
scalar ExamTaskNetwork_no_CCTV.BrowsingLaptop[0].wlan[0].mac 	"sent and received bits" 	4705376
scalar ExamTaskNetwork_no_CCTV.BrowsingLaptop[0].wlan[0].mac 	"sent packet within AC 0" 	6073
scalar ExamTaskNetwork_no_CCTV.BrowsingLaptop[0].wlan[0].mac 	"sent in TXOP " 	0
scalar ExamTaskNetwork_no_CCTV.BrowsingLaptop[0].wlan[0].mac 	"sentWithoutRetry AC 0" 	6033
scalar ExamTaskNetwork_no_CCTV.BrowsingLaptop[0].wlan[0].mac 	"numGivenUp AC 0" 	0
scalar ExamTaskNetwork_no_CCTV.BrowsingLaptop[0].wlan[0].mac 	"numDropped AC 0" 	0
scalar ExamTaskNetwork_no_CCTV.BrowsingLaptop[0].wlan[0].mac 	rcvdPkFromHL:count 	6087
attr interpolationmode  none
attr source  packetReceivedFromUpper
attr title  "packets received from higher layer, count"
scalar ExamTaskNetwork_no_CCTV.BrowsingLaptop[0].wlan[0].mac 	rcvdPkFromHL:sum(packetBytes) 	588172
attr interpolationmode  none
attr source  packetReceivedFromUpper
attr title  "packets received from higher layer, sum(packetBytes)"
scalar ExamTaskNetwork_no_CCTV.BrowsingLaptop[0].wlan[0].mac 	passedUpPk:count 	22712
attr interpolationmode  none
attr source  packetSentToUpper
attr title  "packets passed to higher layer, count"
scalar ExamTaskNetwork_no_CCTV.BrowsingLaptop[0].wlan[0].mac 	passedUpPk:sum(packetBytes) 	11399426
attr interpolationmode  none
attr source  packetSentToUpper
attr title  "packets passed to higher layer, sum(packetBytes)"
scalar ExamTaskNetwork_no_CCTV.BrowsingLaptop[0].wlan[0].mac 	rcvdPkFromLL:count 	3787520
attr interpolationmode  none
attr source  packetReceivedFromLower
attr title  "packets received from lower layer, count"
scalar ExamTaskNetwork_no_CCTV.BrowsingLaptop[0].wlan[0].mac 	rcvdPkFromLL:sum(packetBytes) 	1438155689
attr interpolationmode  none
attr source  packetReceivedFromLower
attr title  "packets received from lower layer, sum(packetBytes)"
scalar ExamTaskNetwork_no_CCTV.BrowsingLaptop[0].wlan[0].mac 	sentDownPk:count 	18782
attr interpolationmode  none
attr source  packetSentToLower
attr title  "packets sent to lower layer, count"
scalar ExamTaskNetwork_no_CCTV.BrowsingLaptop[0].wlan[0].mac 	sentDownPk:sum(packetBytes) 	784410
attr interpolationmode  none
attr source  packetSentToLower
attr title  "packets sent to lower layer, sum(packetBytes)"
scalar ExamTaskNetwork_no_CCTV.BrowsingLaptop[0].wlan[0].radio 	lossRate:min 	0
attr interpolationmode  backward-sample-hold
attr title  "packet loss rate, min"
scalar ExamTaskNetwork_no_CCTV.BrowsingLaptop[0].wlan[0].radio 	lossRate:max 	0.26
attr interpolationmode  backward-sample-hold
attr title  "packet loss rate, max"
scalar ExamTaskNetwork_no_CCTV.BrowsingLaptop[0].wlan[0].radio 	lossRate:timeavg 	0.013024087022422
attr interpolationmode  backward-sample-hold
attr title  "packet loss rate, timeavg"
statistic ExamTaskNetwork_no_CCTV.BrowsingLaptop[0].wlan[0].radio 	channelNo:histogram
field count 1
field mean 0
field stddev -nan
field sum 0
field sqrsum 0
field min 0
field max 0
attr interpolationmode  sample-hold
attr title  "channel no, histogram"
bin	-INF	0
bin	-0.5	0
bin	-0.46666666666667	0
bin	-0.43333333333333	0
bin	-0.4	0
bin	-0.36666666666667	0
bin	-0.33333333333333	0
bin	-0.3	0
bin	-0.26666666666667	0
bin	-0.23333333333333	0
bin	-0.2	0
bin	-0.16666666666667	0
bin	-0.13333333333333	0
bin	-0.1	0
bin	-0.066666666666667	0
bin	-0.033333333333333	0
bin	0	1
bin	0.033333333333333	0
bin	0.066666666666667	0
bin	0.1	0
bin	0.13333333333333	0
bin	0.16666666666667	0
bin	0.2	0
bin	0.23333333333333	0
bin	0.26666666666667	0
bin	0.3	0
bin	0.33333333333333	0
bin	0.36666666666667	0
bin	0.4	0
bin	0.43333333333333	0
bin	0.46666666666667	0
bin	0.5	0
scalar ExamTaskNetwork_no_CCTV.BrowsingLaptop[0].wlan[0].radio 	radioState:count 	7612719
attr interpolationmode  sample-hold
attr title  "radio state (enum), count"
scalar ExamTaskNetwork_no_CCTV.BrowsingLaptop[0].wlan[0].radio 	bitrate:min 	54000000
attr interpolationmode  sample-hold
attr title  "tx bitrate, min"
attr unit  bps
scalar ExamTaskNetwork_no_CCTV.BrowsingLaptop[0].wlan[0].radio 	bitrate:max 	54000000
attr interpolationmode  sample-hold
attr title  "tx bitrate, max"
attr unit  bps
scalar ExamTaskNetwork_no_CCTV.BrowsingLaptop[0].wlan[0].radio 	bitrate:timeavg 	54000000
attr interpolationmode  sample-hold
attr title  "tx bitrate, timeavg"
attr unit  bps
scalar ExamTaskNetwork_no_CCTV.BrowsingLaptop[0].tcpApp[0] 	numActiveSessions:max 	1
attr interpolationmode  sample-hold
attr source  sum(connect)
attr title  "number of active sessions, max"
scalar ExamTaskNetwork_no_CCTV.BrowsingLaptop[0].tcpApp[0] 	numActiveSessions:timeavg 	0.74297920192802
attr interpolationmode  sample-hold
attr source  sum(connect)
attr title  "number of active sessions, timeavg"
scalar ExamTaskNetwork_no_CCTV.BrowsingLaptop[0].tcpApp[0] 	numSessions:last 	11
attr source  sum(connect+1)/2
attr title  "total number of sessions, last"
scalar ExamTaskNetwork_no_CCTV.BrowsingLaptop[0].tcpApp[0] 	sentPk:count 	11
attr interpolationmode  none
attr source  sentPk
attr title  "packets sent, count"
scalar ExamTaskNetwork_no_CCTV.BrowsingLaptop[0].tcpApp[0] 	sentPk:sum(packetBytes) 	90112
attr interpolationmode  none
attr source  sentPk
attr title  "packets sent, sum(packetBytes)"
scalar ExamTaskNetwork_no_CCTV.BrowsingLaptop[0].tcpApp[0] 	rcvdPk:count 	10
attr interpolationmode  none
attr source  rcvdPk
attr title  "packets received, count"
scalar ExamTaskNetwork_no_CCTV.BrowsingLaptop[0].tcpApp[0] 	rcvdPk:sum(packetBytes) 	5328967
attr interpolationmode  none
attr source  rcvdPk
attr title  "packets received, sum(packetBytes)"
statistic ExamTaskNetwork_no_CCTV.BrowsingLaptop[0].tcpApp[0] 	endToEndDelay:histogram
field count 10
field mean 44.351632063277
field stddev 39.791820863977
field sum 443.51632063277
field sqrsum 33921.173735801
field min 0.437941521631
field max 127.29412685257
attr interpolationmode  none
attr source  messageAge(rcvdPk)
attr title  "end-to-end delay, histogram"
attr unit  s
bin	-INF	0
bin	-62.990151143836	0
bin	-54.533072121774	0
bin	-46.075993099712	0
bin	-37.618914077649	0
bin	-29.161835055587	0
bin	-20.704756033525	0
bin	-12.247677011462	0
bin	-3.7905979894002	2
bin	4.6664810326622	0
bin	13.123560054724	3
bin	21.580639076787	0
bin	30.037718098849	0
bin	38.494797120912	0
bin	46.951876142974	1
bin	55.408955165036	1
bin	63.866034187098	1
bin	72.323113209161	1
bin	80.780192231223	0
bin	89.237271253285	0
bin	97.694350275348	0
bin	106.15142929741	0
bin	114.60850831947	0
bin	123.06558734153	1
bin	131.5226663636	0
bin	139.97974538566	0
bin	148.43682440772	0
bin	156.89390342978	0
bin	165.35098245185	0
bin	173.80806147391	0
bin	182.26514049597	0
bin	190.72221951803	0
scalar ExamTaskNetwork_no_CCTV.BrowsingLaptop[1].networkLayer.arp 	initiatedARPResolution:count 	9
attr title  "ARP initiated resolutions, count"
scalar ExamTaskNetwork_no_CCTV.BrowsingLaptop[1].networkLayer.arp 	sentReply:count 	5
attr title  "ARP replies sent, count"
scalar ExamTaskNetwork_no_CCTV.BrowsingLaptop[1].networkLayer.arp 	sentReq:count 	9
attr title  "ARP request sent, count"
scalar ExamTaskNetwork_no_CCTV.BrowsingLaptop[1].networkLayer.arp 	failedARPResolution:count 	0
attr title  "ARP failed resolutions, count"
scalar ExamTaskNetwork_no_CCTV.BrowsingLaptop[1].networkLayer.arp 	completedARPResolution:count 	247
attr title  "ARP completed resolutions, count"
scalar ExamTaskNetwork_no_CCTV.BrowsingLaptop[1].lo0.lo 	rcvdPkFromHL:count 	0
attr interpolationmode  none
attr source  packetReceivedFromUpper
attr title  "packets received from higher layer, count"
scalar ExamTaskNetwork_no_CCTV.BrowsingLaptop[1].lo0.lo 	rcvdPkFromHL:sum(packetBytes) 	0
attr interpolationmode  none
attr source  packetReceivedFromUpper
attr title  "packets received from higher layer, sum(packetBytes)"
scalar ExamTaskNetwork_no_CCTV.BrowsingLaptop[1].lo0.lo 	passedUpPk:count 	0
attr interpolationmode  none
attr source  packetSentToUpper
attr title  "packets passed to higher layer, count"
scalar ExamTaskNetwork_no_CCTV.BrowsingLaptop[1].lo0.lo 	passedUpPk:sum(packetBytes) 	0
attr interpolationmode  none
attr source  packetSentToUpper
attr title  "packets passed to higher layer, sum(packetBytes)"
scalar ExamTaskNetwork_no_CCTV.BrowsingLaptop[1].lo0.lo 	droppedPkBitError:count 	0
attr interpolationmode  none
attr source  dropPkBitError
attr title  "packets dropped/bit error, count"
scalar ExamTaskNetwork_no_CCTV.BrowsingLaptop[1].lo0.lo 	droppedPkBitError:sum(packetBytes) 	0
attr interpolationmode  none
attr source  dropPkBitError
attr title  "packets dropped/bit error, sum(packetBytes)"
scalar ExamTaskNetwork_no_CCTV.BrowsingLaptop[1].wlan[0].agent 	dropConfirm:count 	0
attr title  "dropped confirms, count"
scalar ExamTaskNetwork_no_CCTV.BrowsingLaptop[1].wlan[0].agent 	acceptConfirm:count 	42
attr title  "accepted confirms, count"
scalar ExamTaskNetwork_no_CCTV.BrowsingLaptop[1].wlan[0].agent 	sentRequest:count 	42
attr title  "sent requests, count"
scalar ExamTaskNetwork_no_CCTV.BrowsingLaptop[1].wlan[0].mgmt 	dropPkByQueue:count 	0
attr interpolationmode  none
attr source  dropPkByQueue
attr title  "packets dropped by queue, count"
scalar ExamTaskNetwork_no_CCTV.BrowsingLaptop[1].wlan[0].mgmt 	dropPkByQueue:sum(packetBytes) 	0
attr interpolationmode  none
attr source  dropPkByQueue
attr title  "packets dropped by queue, sum(packetBytes)"
scalar ExamTaskNetwork_no_CCTV.BrowsingLaptop[1].wlan[0].mgmt 	dataQueueLen:max 	42
attr interpolationmode  sample-hold
attr title  "data queue length, max"
scalar ExamTaskNetwork_no_CCTV.BrowsingLaptop[1].wlan[0].mgmt 	dataQueueLen:timeavg 	0.0085630149905745
attr interpolationmode  sample-hold
attr title  "data queue length, timeavg"
scalar ExamTaskNetwork_no_CCTV.BrowsingLaptop[1].wlan[0].mac 	"number of received packets" 	15102
scalar ExamTaskNetwork_no_CCTV.BrowsingLaptop[1].wlan[0].mac 	"number of collisions" 	48972
scalar ExamTaskNetwork_no_CCTV.BrowsingLaptop[1].wlan[0].mac 	"number of internal collisions" 	0
scalar ExamTaskNetwork_no_CCTV.BrowsingLaptop[1].wlan[0].mac 	"number of retry for AC 0" 	301
scalar ExamTaskNetwork_no_CCTV.BrowsingLaptop[1].wlan[0].mac 	"sent and received bits" 	6501840
scalar ExamTaskNetwork_no_CCTV.BrowsingLaptop[1].wlan[0].mac 	"sent packet within AC 0" 	8153
scalar ExamTaskNetwork_no_CCTV.BrowsingLaptop[1].wlan[0].mac 	"sent in TXOP " 	0
scalar ExamTaskNetwork_no_CCTV.BrowsingLaptop[1].wlan[0].mac 	"sentWithoutRetry AC 0" 	7912
scalar ExamTaskNetwork_no_CCTV.BrowsingLaptop[1].wlan[0].mac 	"numGivenUp AC 0" 	0
scalar ExamTaskNetwork_no_CCTV.BrowsingLaptop[1].wlan[0].mac 	"numDropped AC 0" 	0
scalar ExamTaskNetwork_no_CCTV.BrowsingLaptop[1].wlan[0].mac 	rcvdPkFromHL:count 	8167
attr interpolationmode  none
attr source  packetReceivedFromUpper
attr title  "packets received from higher layer, count"
scalar ExamTaskNetwork_no_CCTV.BrowsingLaptop[1].wlan[0].mac 	rcvdPkFromHL:sum(packetBytes) 	812730
attr interpolationmode  none
attr source  packetReceivedFromUpper
attr title  "packets received from higher layer, sum(packetBytes)"
scalar ExamTaskNetwork_no_CCTV.BrowsingLaptop[1].wlan[0].mac 	passedUpPk:count 	25203
attr interpolationmode  none
attr source  packetSentToUpper
attr title  "packets passed to higher layer, count"
scalar ExamTaskNetwork_no_CCTV.BrowsingLaptop[1].wlan[0].mac 	passedUpPk:sum(packetBytes) 	13419895
attr interpolationmode  none
attr source  packetSentToUpper
attr title  "packets passed to higher layer, sum(packetBytes)"
scalar ExamTaskNetwork_no_CCTV.BrowsingLaptop[1].wlan[0].mac 	rcvdPkFromLL:count 	3782732
attr interpolationmode  none
attr source  packetReceivedFromLower
attr title  "packets received from lower layer, count"
scalar ExamTaskNetwork_no_CCTV.BrowsingLaptop[1].wlan[0].mac 	rcvdPkFromLL:sum(packetBytes) 	1437563446
attr interpolationmode  none
attr source  packetReceivedFromLower
attr title  "packets received from lower layer, sum(packetBytes)"
scalar ExamTaskNetwork_no_CCTV.BrowsingLaptop[1].wlan[0].mac 	sentDownPk:count 	23570
attr interpolationmode  none
attr source  packetSentToLower
attr title  "packets sent to lower layer, count"
scalar ExamTaskNetwork_no_CCTV.BrowsingLaptop[1].wlan[0].mac 	sentDownPk:sum(packetBytes) 	1060158
attr interpolationmode  none
attr source  packetSentToLower
attr title  "packets sent to lower layer, sum(packetBytes)"
scalar ExamTaskNetwork_no_CCTV.BrowsingLaptop[1].wlan[0].radio 	lossRate:min 	0
attr interpolationmode  backward-sample-hold
attr title  "packet loss rate, min"
scalar ExamTaskNetwork_no_CCTV.BrowsingLaptop[1].wlan[0].radio 	lossRate:max 	0.24
attr interpolationmode  backward-sample-hold
attr title  "packet loss rate, max"
scalar ExamTaskNetwork_no_CCTV.BrowsingLaptop[1].wlan[0].radio 	lossRate:timeavg 	0.012976586133552
attr interpolationmode  backward-sample-hold
attr title  "packet loss rate, timeavg"
statistic ExamTaskNetwork_no_CCTV.BrowsingLaptop[1].wlan[0].radio 	channelNo:histogram
field count 1
field mean 0
field stddev -nan
field sum 0
field sqrsum 0
field min 0
field max 0
attr interpolationmode  sample-hold
attr title  "channel no, histogram"
bin	-INF	0
bin	-0.5	0
bin	-0.46666666666667	0
bin	-0.43333333333333	0
bin	-0.4	0
bin	-0.36666666666667	0
bin	-0.33333333333333	0
bin	-0.3	0
bin	-0.26666666666667	0
bin	-0.23333333333333	0
bin	-0.2	0
bin	-0.16666666666667	0
bin	-0.13333333333333	0
bin	-0.1	0
bin	-0.066666666666667	0
bin	-0.033333333333333	0
bin	0	1
bin	0.033333333333333	0
bin	0.066666666666667	0
bin	0.1	0
bin	0.13333333333333	0
bin	0.16666666666667	0
bin	0.2	0
bin	0.23333333333333	0
bin	0.26666666666667	0
bin	0.3	0
bin	0.33333333333333	0
bin	0.36666666666667	0
bin	0.4	0
bin	0.43333333333333	0
bin	0.46666666666667	0
bin	0.5	0
scalar ExamTaskNetwork_no_CCTV.BrowsingLaptop[1].wlan[0].radio 	radioState:count 	7612982
attr interpolationmode  sample-hold
attr title  "radio state (enum), count"
scalar ExamTaskNetwork_no_CCTV.BrowsingLaptop[1].wlan[0].radio 	bitrate:min 	54000000
attr interpolationmode  sample-hold
attr title  "tx bitrate, min"
attr unit  bps
scalar ExamTaskNetwork_no_CCTV.BrowsingLaptop[1].wlan[0].radio 	bitrate:max 	54000000
attr interpolationmode  sample-hold
attr title  "tx bitrate, max"
attr unit  bps
scalar ExamTaskNetwork_no_CCTV.BrowsingLaptop[1].wlan[0].radio 	bitrate:timeavg 	54000000
attr interpolationmode  sample-hold
attr title  "tx bitrate, timeavg"
attr unit  bps
scalar ExamTaskNetwork_no_CCTV.BrowsingLaptop[1].tcpApp[0] 	numActiveSessions:max 	1
attr interpolationmode  sample-hold
attr source  sum(connect)
attr title  "number of active sessions, max"
scalar ExamTaskNetwork_no_CCTV.BrowsingLaptop[1].tcpApp[0] 	numActiveSessions:timeavg 	0.72556304270726
attr interpolationmode  sample-hold
attr source  sum(connect)
attr title  "number of active sessions, timeavg"
scalar ExamTaskNetwork_no_CCTV.BrowsingLaptop[1].tcpApp[0] 	numSessions:last 	16
attr source  sum(connect+1)/2
attr title  "total number of sessions, last"
scalar ExamTaskNetwork_no_CCTV.BrowsingLaptop[1].tcpApp[0] 	sentPk:count 	16
attr interpolationmode  none
attr source  sentPk
attr title  "packets sent, count"
scalar ExamTaskNetwork_no_CCTV.BrowsingLaptop[1].tcpApp[0] 	sentPk:sum(packetBytes) 	131072
attr interpolationmode  none
attr source  sentPk
attr title  "packets sent, sum(packetBytes)"
scalar ExamTaskNetwork_no_CCTV.BrowsingLaptop[1].tcpApp[0] 	rcvdPk:count 	15
attr interpolationmode  none
attr source  rcvdPk
attr title  "packets received, count"
scalar ExamTaskNetwork_no_CCTV.BrowsingLaptop[1].tcpApp[0] 	rcvdPk:sum(packetBytes) 	9819573
attr interpolationmode  none
attr source  rcvdPk
attr title  "packets received, sum(packetBytes)"
statistic ExamTaskNetwork_no_CCTV.BrowsingLaptop[1].tcpApp[0] 	endToEndDelay:histogram
field count 15
field mean 45.60748872162
field stddev 37.48861861623
field sum 684.1123308243
field sqrsum 50876.196772935
field min 0.609331449755
field max 92.680221441077
attr interpolationmode  none
attr source  messageAge(rcvdPk)
attr title  "end-to-end delay, histogram"
attr unit  s
bin	-INF	0
bin	-45.426113545906	0
bin	-39.288054213151	0
bin	-33.149994880396	0
bin	-27.011935547642	0
bin	-20.873876214887	0
bin	-14.735816882132	0
bin	-8.5977575493772	0
bin	-2.4596982166224	2
bin	3.6783611161324	2
bin	9.8164204488872	1
bin	15.954479781642	1
bin	22.092539114397	1
bin	28.230598447152	1
bin	34.368657779906	0
bin	40.506717112661	0
bin	46.644776445416	0
bin	52.782835778171	0
bin	58.920895110926	0
bin	65.05895444368	1
bin	71.197013776435	0
bin	77.33507310919	2
bin	83.473132441945	2
bin	89.6111917747	2
bin	95.749251107454	0
bin	101.88731044021	0
bin	108.02536977296	0
bin	114.16342910572	0
bin	120.30148843847	0
bin	126.43954777123	0
bin	132.57760710398	0
bin	138.71566643674	0
scalar ExamTaskNetwork_no_CCTV.BrowsingLaptop[2].networkLayer.arp 	initiatedARPResolution:count 	7
attr title  "ARP initiated resolutions, count"
scalar ExamTaskNetwork_no_CCTV.BrowsingLaptop[2].networkLayer.arp 	sentReply:count 	5
attr title  "ARP replies sent, count"
scalar ExamTaskNetwork_no_CCTV.BrowsingLaptop[2].networkLayer.arp 	sentReq:count 	7
attr title  "ARP request sent, count"
scalar ExamTaskNetwork_no_CCTV.BrowsingLaptop[2].networkLayer.arp 	failedARPResolution:count 	0
attr title  "ARP failed resolutions, count"
scalar ExamTaskNetwork_no_CCTV.BrowsingLaptop[2].networkLayer.arp 	completedARPResolution:count 	260
attr title  "ARP completed resolutions, count"
scalar ExamTaskNetwork_no_CCTV.BrowsingLaptop[2].lo0.lo 	rcvdPkFromHL:count 	0
attr interpolationmode  none
attr source  packetReceivedFromUpper
attr title  "packets received from higher layer, count"
scalar ExamTaskNetwork_no_CCTV.BrowsingLaptop[2].lo0.lo 	rcvdPkFromHL:sum(packetBytes) 	0
attr interpolationmode  none
attr source  packetReceivedFromUpper
attr title  "packets received from higher layer, sum(packetBytes)"
scalar ExamTaskNetwork_no_CCTV.BrowsingLaptop[2].lo0.lo 	passedUpPk:count 	0
attr interpolationmode  none
attr source  packetSentToUpper
attr title  "packets passed to higher layer, count"
scalar ExamTaskNetwork_no_CCTV.BrowsingLaptop[2].lo0.lo 	passedUpPk:sum(packetBytes) 	0
attr interpolationmode  none
attr source  packetSentToUpper
attr title  "packets passed to higher layer, sum(packetBytes)"
scalar ExamTaskNetwork_no_CCTV.BrowsingLaptop[2].lo0.lo 	droppedPkBitError:count 	0
attr interpolationmode  none
attr source  dropPkBitError
attr title  "packets dropped/bit error, count"
scalar ExamTaskNetwork_no_CCTV.BrowsingLaptop[2].lo0.lo 	droppedPkBitError:sum(packetBytes) 	0
attr interpolationmode  none
attr source  dropPkBitError
attr title  "packets dropped/bit error, sum(packetBytes)"
scalar ExamTaskNetwork_no_CCTV.BrowsingLaptop[2].wlan[0].agent 	dropConfirm:count 	0
attr title  "dropped confirms, count"
scalar ExamTaskNetwork_no_CCTV.BrowsingLaptop[2].wlan[0].agent 	acceptConfirm:count 	42
attr title  "accepted confirms, count"
scalar ExamTaskNetwork_no_CCTV.BrowsingLaptop[2].wlan[0].agent 	sentRequest:count 	42
attr title  "sent requests, count"
scalar ExamTaskNetwork_no_CCTV.BrowsingLaptop[2].wlan[0].mgmt 	dropPkByQueue:count 	0
attr interpolationmode  none
attr source  dropPkByQueue
attr title  "packets dropped by queue, count"
scalar ExamTaskNetwork_no_CCTV.BrowsingLaptop[2].wlan[0].mgmt 	dropPkByQueue:sum(packetBytes) 	0
attr interpolationmode  none
attr source  dropPkByQueue
attr title  "packets dropped by queue, sum(packetBytes)"
scalar ExamTaskNetwork_no_CCTV.BrowsingLaptop[2].wlan[0].mgmt 	dataQueueLen:max 	0
attr interpolationmode  sample-hold
attr title  "data queue length, max"
scalar ExamTaskNetwork_no_CCTV.BrowsingLaptop[2].wlan[0].mgmt 	dataQueueLen:timeavg 	0
attr interpolationmode  sample-hold
attr title  "data queue length, timeavg"
scalar ExamTaskNetwork_no_CCTV.BrowsingLaptop[2].wlan[0].mac 	"number of received packets" 	13840
scalar ExamTaskNetwork_no_CCTV.BrowsingLaptop[2].wlan[0].mac 	"number of collisions" 	49220
scalar ExamTaskNetwork_no_CCTV.BrowsingLaptop[2].wlan[0].mac 	"number of internal collisions" 	0
scalar ExamTaskNetwork_no_CCTV.BrowsingLaptop[2].wlan[0].mac 	"number of retry for AC 0" 	87
scalar ExamTaskNetwork_no_CCTV.BrowsingLaptop[2].wlan[0].mac 	"sent and received bits" 	5226288
scalar ExamTaskNetwork_no_CCTV.BrowsingLaptop[2].wlan[0].mac 	"sent packet within AC 0" 	6713
scalar ExamTaskNetwork_no_CCTV.BrowsingLaptop[2].wlan[0].mac 	"sent in TXOP " 	0
scalar ExamTaskNetwork_no_CCTV.BrowsingLaptop[2].wlan[0].mac 	"sentWithoutRetry AC 0" 	6669
scalar ExamTaskNetwork_no_CCTV.BrowsingLaptop[2].wlan[0].mac 	"numGivenUp AC 0" 	0
scalar ExamTaskNetwork_no_CCTV.BrowsingLaptop[2].wlan[0].mac 	"numDropped AC 0" 	0
scalar ExamTaskNetwork_no_CCTV.BrowsingLaptop[2].wlan[0].mac 	rcvdPkFromHL:count 	6727
attr interpolationmode  none
attr source  packetReceivedFromUpper
attr title  "packets received from higher layer, count"
scalar ExamTaskNetwork_no_CCTV.BrowsingLaptop[2].wlan[0].mac 	rcvdPkFromHL:sum(packetBytes) 	653286
attr interpolationmode  none
attr source  packetReceivedFromUpper
attr title  "packets received from higher layer, sum(packetBytes)"
scalar ExamTaskNetwork_no_CCTV.BrowsingLaptop[2].wlan[0].mac 	passedUpPk:count 	23943
attr interpolationmode  none
attr source  packetSentToUpper
attr title  "packets passed to higher layer, count"
scalar ExamTaskNetwork_no_CCTV.BrowsingLaptop[2].wlan[0].mac 	passedUpPk:sum(packetBytes) 	12380217
attr interpolationmode  none
attr source  packetSentToUpper
attr title  "packets passed to higher layer, sum(packetBytes)"
scalar ExamTaskNetwork_no_CCTV.BrowsingLaptop[2].wlan[0].mac 	rcvdPkFromLL:count 	3785648
attr interpolationmode  none
attr source  packetReceivedFromLower
attr title  "packets received from lower layer, count"
scalar ExamTaskNetwork_no_CCTV.BrowsingLaptop[2].wlan[0].mac 	rcvdPkFromLL:sum(packetBytes) 	1438181108
attr interpolationmode  none
attr source  packetReceivedFromLower
attr title  "packets received from lower layer, sum(packetBytes)"
scalar ExamTaskNetwork_no_CCTV.BrowsingLaptop[2].wlan[0].mac 	sentDownPk:count 	20654
attr interpolationmode  none
attr source  packetSentToLower
attr title  "packets sent to lower layer, count"
scalar ExamTaskNetwork_no_CCTV.BrowsingLaptop[2].wlan[0].mac 	sentDownPk:sum(packetBytes) 	873270
attr interpolationmode  none
attr source  packetSentToLower
attr title  "packets sent to lower layer, sum(packetBytes)"
scalar ExamTaskNetwork_no_CCTV.BrowsingLaptop[2].wlan[0].radio 	lossRate:min 	0
attr interpolationmode  backward-sample-hold
attr title  "packet loss rate, min"
scalar ExamTaskNetwork_no_CCTV.BrowsingLaptop[2].wlan[0].radio 	lossRate:max 	0.3
attr interpolationmode  backward-sample-hold
attr title  "packet loss rate, max"
scalar ExamTaskNetwork_no_CCTV.BrowsingLaptop[2].wlan[0].radio 	lossRate:timeavg 	0.013011887705618
attr interpolationmode  backward-sample-hold
attr title  "packet loss rate, timeavg"
statistic ExamTaskNetwork_no_CCTV.BrowsingLaptop[2].wlan[0].radio 	channelNo:histogram
field count 1
field mean 0
field stddev -nan
field sum 0
field sqrsum 0
field min 0
field max 0
attr interpolationmode  sample-hold
attr title  "channel no, histogram"
bin	-INF	0
bin	-0.5	0
bin	-0.46666666666667	0
bin	-0.43333333333333	0
bin	-0.4	0
bin	-0.36666666666667	0
bin	-0.33333333333333	0
bin	-0.3	0
bin	-0.26666666666667	0
bin	-0.23333333333333	0
bin	-0.2	0
bin	-0.16666666666667	0
bin	-0.13333333333333	0
bin	-0.1	0
bin	-0.066666666666667	0
bin	-0.033333333333333	0
bin	0	1
bin	0.033333333333333	0
bin	0.066666666666667	0
bin	0.1	0
bin	0.13333333333333	0
bin	0.16666666666667	0
bin	0.2	0
bin	0.23333333333333	0
bin	0.26666666666667	0
bin	0.3	0
bin	0.33333333333333	0
bin	0.36666666666667	0
bin	0.4	0
bin	0.43333333333333	0
bin	0.46666666666667	0
bin	0.5	0
scalar ExamTaskNetwork_no_CCTV.BrowsingLaptop[2].wlan[0].radio 	radioState:count 	7612710
attr interpolationmode  sample-hold
attr title  "radio state (enum), count"
scalar ExamTaskNetwork_no_CCTV.BrowsingLaptop[2].wlan[0].radio 	bitrate:min 	54000000
attr interpolationmode  sample-hold
attr title  "tx bitrate, min"
attr unit  bps
scalar ExamTaskNetwork_no_CCTV.BrowsingLaptop[2].wlan[0].radio 	bitrate:max 	54000000
attr interpolationmode  sample-hold
attr title  "tx bitrate, max"
attr unit  bps
scalar ExamTaskNetwork_no_CCTV.BrowsingLaptop[2].wlan[0].radio 	bitrate:timeavg 	54000000
attr interpolationmode  sample-hold
attr title  "tx bitrate, timeavg"
attr unit  bps
scalar ExamTaskNetwork_no_CCTV.BrowsingLaptop[2].tcpApp[0] 	numActiveSessions:max 	1
attr interpolationmode  sample-hold
attr source  sum(connect)
attr title  "number of active sessions, max"
scalar ExamTaskNetwork_no_CCTV.BrowsingLaptop[2].tcpApp[0] 	numActiveSessions:timeavg 	0.69558595273803
attr interpolationmode  sample-hold
attr source  sum(connect)
attr title  "number of active sessions, timeavg"
scalar ExamTaskNetwork_no_CCTV.BrowsingLaptop[2].tcpApp[0] 	numSessions:last 	12
attr source  sum(connect+1)/2
attr title  "total number of sessions, last"
scalar ExamTaskNetwork_no_CCTV.BrowsingLaptop[2].tcpApp[0] 	sentPk:count 	12
attr interpolationmode  none
attr source  sentPk
attr title  "packets sent, count"
scalar ExamTaskNetwork_no_CCTV.BrowsingLaptop[2].tcpApp[0] 	sentPk:sum(packetBytes) 	98304
attr interpolationmode  none
attr source  sentPk
attr title  "packets sent, sum(packetBytes)"
scalar ExamTaskNetwork_no_CCTV.BrowsingLaptop[2].tcpApp[0] 	rcvdPk:count 	12
attr interpolationmode  none
attr source  rcvdPk
attr title  "packets received, count"
scalar ExamTaskNetwork_no_CCTV.BrowsingLaptop[2].tcpApp[0] 	rcvdPk:sum(packetBytes) 	9356162
attr interpolationmode  none
attr source  rcvdPk
attr title  "packets received, sum(packetBytes)"
statistic ExamTaskNetwork_no_CCTV.BrowsingLaptop[2].tcpApp[0] 	endToEndDelay:histogram
field count 12
field mean 57.272158561892
field stddev 39.886986161239
field sum 687.2659027427
field sqrsum 56861.890071358
field min 1.862020271769
field max 109.11001092655
attr interpolationmode  none
attr source  messageAge(rcvdPk)
attr title  "end-to-end delay, histogram"
attr unit  s
bin	-INF	0
bin	-51.76197505562	0
bin	-44.612109011968	0
bin	-37.462242968316	0
bin	-30.312376924664	0
bin	-23.162510881013	0
bin	-16.012644837361	0
bin	-8.8627787937088	0
bin	-1.7129127500569	1
bin	5.4369532935949	1
bin	12.586819337247	0
bin	19.736685380899	2
bin	26.886551424551	0
bin	34.036417468202	0
bin	41.186283511854	3
bin	48.336149555506	0
bin	55.486015599158	0
bin	62.63588164281	0
bin	69.785747686462	0
bin	76.935613730114	1
bin	84.085479773765	0
bin	91.235345817417	1
bin	98.385211861069	1
bin	105.53507790472	2
bin	112.68494394837	0
bin	119.83480999202	0
bin	126.98467603568	0
bin	134.13454207933	0
bin	141.28440812298	0
bin	148.43427416663	0
bin	155.58414021028	0
bin	162.73400625394	0
scalar ExamTaskNetwork_no_CCTV.BrowsingLaptop[3].networkLayer.arp 	initiatedARPResolution:count 	9
attr title  "ARP initiated resolutions, count"
scalar ExamTaskNetwork_no_CCTV.BrowsingLaptop[3].networkLayer.arp 	sentReply:count 	3
attr title  "ARP replies sent, count"
scalar ExamTaskNetwork_no_CCTV.BrowsingLaptop[3].networkLayer.arp 	sentReq:count 	11
attr title  "ARP request sent, count"
scalar ExamTaskNetwork_no_CCTV.BrowsingLaptop[3].networkLayer.arp 	failedARPResolution:count 	1
attr title  "ARP failed resolutions, count"
scalar ExamTaskNetwork_no_CCTV.BrowsingLaptop[3].networkLayer.arp 	completedARPResolution:count 	233
attr title  "ARP completed resolutions, count"
scalar ExamTaskNetwork_no_CCTV.BrowsingLaptop[3].lo0.lo 	rcvdPkFromHL:count 	0
attr interpolationmode  none
attr source  packetReceivedFromUpper
attr title  "packets received from higher layer, count"
scalar ExamTaskNetwork_no_CCTV.BrowsingLaptop[3].lo0.lo 	rcvdPkFromHL:sum(packetBytes) 	0
attr interpolationmode  none
attr source  packetReceivedFromUpper
attr title  "packets received from higher layer, sum(packetBytes)"
scalar ExamTaskNetwork_no_CCTV.BrowsingLaptop[3].lo0.lo 	passedUpPk:count 	0
attr interpolationmode  none
attr source  packetSentToUpper
attr title  "packets passed to higher layer, count"
scalar ExamTaskNetwork_no_CCTV.BrowsingLaptop[3].lo0.lo 	passedUpPk:sum(packetBytes) 	0
attr interpolationmode  none
attr source  packetSentToUpper
attr title  "packets passed to higher layer, sum(packetBytes)"
scalar ExamTaskNetwork_no_CCTV.BrowsingLaptop[3].lo0.lo 	droppedPkBitError:count 	0
attr interpolationmode  none
attr source  dropPkBitError
attr title  "packets dropped/bit error, count"
scalar ExamTaskNetwork_no_CCTV.BrowsingLaptop[3].lo0.lo 	droppedPkBitError:sum(packetBytes) 	0
attr interpolationmode  none
attr source  dropPkBitError
attr title  "packets dropped/bit error, sum(packetBytes)"
scalar ExamTaskNetwork_no_CCTV.BrowsingLaptop[3].wlan[0].agent 	dropConfirm:count 	0
attr title  "dropped confirms, count"
scalar ExamTaskNetwork_no_CCTV.BrowsingLaptop[3].wlan[0].agent 	acceptConfirm:count 	42
attr title  "accepted confirms, count"
scalar ExamTaskNetwork_no_CCTV.BrowsingLaptop[3].wlan[0].agent 	sentRequest:count 	42
attr title  "sent requests, count"
scalar ExamTaskNetwork_no_CCTV.BrowsingLaptop[3].wlan[0].mgmt 	dropPkByQueue:count 	9
attr interpolationmode  none
attr source  dropPkByQueue
attr title  "packets dropped by queue, count"
scalar ExamTaskNetwork_no_CCTV.BrowsingLaptop[3].wlan[0].mgmt 	dropPkByQueue:sum(packetBytes) 	880
attr interpolationmode  none
attr source  dropPkByQueue
attr title  "packets dropped by queue, sum(packetBytes)"
scalar ExamTaskNetwork_no_CCTV.BrowsingLaptop[3].wlan[0].mgmt 	dataQueueLen:max 	50
attr interpolationmode  sample-hold
attr title  "data queue length, max"
scalar ExamTaskNetwork_no_CCTV.BrowsingLaptop[3].wlan[0].mgmt 	dataQueueLen:timeavg 	0.0075067311093362
attr interpolationmode  sample-hold
attr title  "data queue length, timeavg"
scalar ExamTaskNetwork_no_CCTV.BrowsingLaptop[3].wlan[0].mac 	"number of received packets" 	12073
scalar ExamTaskNetwork_no_CCTV.BrowsingLaptop[3].wlan[0].mac 	"number of collisions" 	49073
scalar ExamTaskNetwork_no_CCTV.BrowsingLaptop[3].wlan[0].mac 	"number of internal collisions" 	0
scalar ExamTaskNetwork_no_CCTV.BrowsingLaptop[3].wlan[0].mac 	"number of retry for AC 0" 	265
scalar ExamTaskNetwork_no_CCTV.BrowsingLaptop[3].wlan[0].mac 	"sent and received bits" 	5321072
scalar ExamTaskNetwork_no_CCTV.BrowsingLaptop[3].wlan[0].mac 	"sent packet within AC 0" 	6489
scalar ExamTaskNetwork_no_CCTV.BrowsingLaptop[3].wlan[0].mac 	"sent in TXOP " 	0
scalar ExamTaskNetwork_no_CCTV.BrowsingLaptop[3].wlan[0].mac 	"sentWithoutRetry AC 0" 	6288
scalar ExamTaskNetwork_no_CCTV.BrowsingLaptop[3].wlan[0].mac 	"numGivenUp AC 0" 	0
scalar ExamTaskNetwork_no_CCTV.BrowsingLaptop[3].wlan[0].mac 	"numDropped AC 0" 	0
scalar ExamTaskNetwork_no_CCTV.BrowsingLaptop[3].wlan[0].mac 	rcvdPkFromHL:count 	6503
attr interpolationmode  none
attr source  packetReceivedFromUpper
attr title  "packets received from higher layer, count"
scalar ExamTaskNetwork_no_CCTV.BrowsingLaptop[3].wlan[0].mac 	rcvdPkFromHL:sum(packetBytes) 	665134
attr interpolationmode  none
attr source  packetReceivedFromUpper
attr title  "packets received from higher layer, sum(packetBytes)"
scalar ExamTaskNetwork_no_CCTV.BrowsingLaptop[3].wlan[0].mac 	passedUpPk:count 	22171
attr interpolationmode  none
attr source  packetSentToUpper
attr title  "packets passed to higher layer, count"
scalar ExamTaskNetwork_no_CCTV.BrowsingLaptop[3].wlan[0].mac 	passedUpPk:sum(packetBytes) 	10892348
attr interpolationmode  none
attr source  packetSentToUpper
attr title  "packets passed to higher layer, sum(packetBytes)"
scalar ExamTaskNetwork_no_CCTV.BrowsingLaptop[3].wlan[0].mac 	rcvdPkFromLL:count 	3787461
attr interpolationmode  none
attr source  packetReceivedFromLower
attr title  "packets received from lower layer, count"
scalar ExamTaskNetwork_no_CCTV.BrowsingLaptop[3].wlan[0].mac 	rcvdPkFromLL:sum(packetBytes) 	1438150024
attr interpolationmode  none
attr source  packetReceivedFromLower
attr title  "packets received from lower layer, sum(packetBytes)"
scalar ExamTaskNetwork_no_CCTV.BrowsingLaptop[3].wlan[0].mac 	sentDownPk:count 	18841
attr interpolationmode  none
attr source  packetSentToLower
attr title  "packets sent to lower layer, count"
scalar ExamTaskNetwork_no_CCTV.BrowsingLaptop[3].wlan[0].mac 	sentDownPk:sum(packetBytes) 	891046
attr interpolationmode  none
attr source  packetSentToLower
attr title  "packets sent to lower layer, sum(packetBytes)"
scalar ExamTaskNetwork_no_CCTV.BrowsingLaptop[3].wlan[0].radio 	lossRate:min 	0
attr interpolationmode  backward-sample-hold
attr title  "packet loss rate, min"
scalar ExamTaskNetwork_no_CCTV.BrowsingLaptop[3].wlan[0].radio 	lossRate:max 	0.28
attr interpolationmode  backward-sample-hold
attr title  "packet loss rate, max"
scalar ExamTaskNetwork_no_CCTV.BrowsingLaptop[3].wlan[0].radio 	lossRate:timeavg 	0.012977906019839
attr interpolationmode  backward-sample-hold
attr title  "packet loss rate, timeavg"
statistic ExamTaskNetwork_no_CCTV.BrowsingLaptop[3].wlan[0].radio 	channelNo:histogram
field count 1
field mean 0
field stddev -nan
field sum 0
field sqrsum 0
field min 0
field max 0
attr interpolationmode  sample-hold
attr title  "channel no, histogram"
bin	-INF	0
bin	-0.5	0
bin	-0.46666666666667	0
bin	-0.43333333333333	0
bin	-0.4	0
bin	-0.36666666666667	0
bin	-0.33333333333333	0
bin	-0.3	0
bin	-0.26666666666667	0
bin	-0.23333333333333	0
bin	-0.2	0
bin	-0.16666666666667	0
bin	-0.13333333333333	0
bin	-0.1	0
bin	-0.066666666666667	0
bin	-0.033333333333333	0
bin	0	1
bin	0.033333333333333	0
bin	0.066666666666667	0
bin	0.1	0
bin	0.13333333333333	0
bin	0.16666666666667	0
bin	0.2	0
bin	0.23333333333333	0
bin	0.26666666666667	0
bin	0.3	0
bin	0.33333333333333	0
bin	0.36666666666667	0
bin	0.4	0
bin	0.43333333333333	0
bin	0.46666666666667	0
bin	0.5	0
scalar ExamTaskNetwork_no_CCTV.BrowsingLaptop[3].wlan[0].radio 	radioState:count 	7612923
attr interpolationmode  sample-hold
attr title  "radio state (enum), count"
scalar ExamTaskNetwork_no_CCTV.BrowsingLaptop[3].wlan[0].radio 	bitrate:min 	54000000
attr interpolationmode  sample-hold
attr title  "tx bitrate, min"
attr unit  bps
scalar ExamTaskNetwork_no_CCTV.BrowsingLaptop[3].wlan[0].radio 	bitrate:max 	54000000
attr interpolationmode  sample-hold
attr title  "tx bitrate, max"
attr unit  bps
scalar ExamTaskNetwork_no_CCTV.BrowsingLaptop[3].wlan[0].radio 	bitrate:timeavg 	54000000
attr interpolationmode  sample-hold
attr title  "tx bitrate, timeavg"
attr unit  bps
scalar ExamTaskNetwork_no_CCTV.BrowsingLaptop[3].tcpApp[0] 	numActiveSessions:max 	1
attr interpolationmode  sample-hold
attr source  sum(connect)
attr title  "number of active sessions, max"
scalar ExamTaskNetwork_no_CCTV.BrowsingLaptop[3].tcpApp[0] 	numActiveSessions:timeavg 	0.6945458735102
attr interpolationmode  sample-hold
attr source  sum(connect)
attr title  "number of active sessions, timeavg"
scalar ExamTaskNetwork_no_CCTV.BrowsingLaptop[3].tcpApp[0] 	numSessions:last 	15
attr source  sum(connect+1)/2
attr title  "total number of sessions, last"
scalar ExamTaskNetwork_no_CCTV.BrowsingLaptop[3].tcpApp[0] 	sentPk:count 	15
attr interpolationmode  none
attr source  sentPk
attr title  "packets sent, count"
scalar ExamTaskNetwork_no_CCTV.BrowsingLaptop[3].tcpApp[0] 	sentPk:sum(packetBytes) 	122880
attr interpolationmode  none
attr source  sentPk
attr title  "packets sent, sum(packetBytes)"
scalar ExamTaskNetwork_no_CCTV.BrowsingLaptop[3].tcpApp[0] 	rcvdPk:count 	14
attr interpolationmode  none
attr source  rcvdPk
attr title  "packets received, count"
scalar ExamTaskNetwork_no_CCTV.BrowsingLaptop[3].tcpApp[0] 	rcvdPk:sum(packetBytes) 	7313055
attr interpolationmode  none
attr source  rcvdPk
attr title  "packets received, sum(packetBytes)"
statistic ExamTaskNetwork_no_CCTV.BrowsingLaptop[3].tcpApp[0] 	endToEndDelay:histogram
field count 14
field mean 43.971293652552
field stddev 44.112446669036
field sum 615.59811113573
field sqrsum 52365.448681377
field min 0.496589059006
field max 154.09594828413
attr interpolationmode  none
attr source  messageAge(rcvdPk)
attr title  "end-to-end delay, histogram"
attr unit  s
bin	-INF	0
bin	-76.303090553557	0
bin	-66.063133271882	0
bin	-55.823175990207	0
bin	-45.583218708532	0
bin	-35.343261426857	0
bin	-25.103304145182	0
bin	-14.863346863507	0
bin	-4.6233895818316	2
bin	5.6165676998436	2
bin	15.856524981519	3
bin	26.096482263194	1
bin	36.336439544869	1
bin	46.576396826544	2
bin	56.816354108219	0
bin	67.056311389894	1
bin	77.296268671569	0
bin	87.536225953245	0
bin	97.77618323492	0
bin	108.01614051659	1
bin	118.25609779827	0
bin	128.49605507995	0
bin	138.73601236162	0
bin	148.9759696433	1
bin	159.21592692497	0
bin	169.45588420665	0
bin	179.69584148832	0
bin	189.93579877	0
bin	200.17575605167	0
bin	210.41571333335	0
bin	220.65567061502	0
bin	230.8956278967	0
scalar ExamTaskNetwork_no_CCTV.BrowsingLaptop[4].networkLayer.arp 	initiatedARPResolution:count 	9
attr title  "ARP initiated resolutions, count"
scalar ExamTaskNetwork_no_CCTV.BrowsingLaptop[4].networkLayer.arp 	sentReply:count 	3
attr title  "ARP replies sent, count"
scalar ExamTaskNetwork_no_CCTV.BrowsingLaptop[4].networkLayer.arp 	sentReq:count 	13
attr title  "ARP request sent, count"
scalar ExamTaskNetwork_no_CCTV.BrowsingLaptop[4].networkLayer.arp 	failedARPResolution:count 	1
attr title  "ARP failed resolutions, count"
scalar ExamTaskNetwork_no_CCTV.BrowsingLaptop[4].networkLayer.arp 	completedARPResolution:count 	174
attr title  "ARP completed resolutions, count"
scalar ExamTaskNetwork_no_CCTV.BrowsingLaptop[4].lo0.lo 	rcvdPkFromHL:count 	0
attr interpolationmode  none
attr source  packetReceivedFromUpper
attr title  "packets received from higher layer, count"
scalar ExamTaskNetwork_no_CCTV.BrowsingLaptop[4].lo0.lo 	rcvdPkFromHL:sum(packetBytes) 	0
attr interpolationmode  none
attr source  packetReceivedFromUpper
attr title  "packets received from higher layer, sum(packetBytes)"
scalar ExamTaskNetwork_no_CCTV.BrowsingLaptop[4].lo0.lo 	passedUpPk:count 	0
attr interpolationmode  none
attr source  packetSentToUpper
attr title  "packets passed to higher layer, count"
scalar ExamTaskNetwork_no_CCTV.BrowsingLaptop[4].lo0.lo 	passedUpPk:sum(packetBytes) 	0
attr interpolationmode  none
attr source  packetSentToUpper
attr title  "packets passed to higher layer, sum(packetBytes)"
scalar ExamTaskNetwork_no_CCTV.BrowsingLaptop[4].lo0.lo 	droppedPkBitError:count 	0
attr interpolationmode  none
attr source  dropPkBitError
attr title  "packets dropped/bit error, count"
scalar ExamTaskNetwork_no_CCTV.BrowsingLaptop[4].lo0.lo 	droppedPkBitError:sum(packetBytes) 	0
attr interpolationmode  none
attr source  dropPkBitError
attr title  "packets dropped/bit error, sum(packetBytes)"
scalar ExamTaskNetwork_no_CCTV.BrowsingLaptop[4].wlan[0].agent 	dropConfirm:count 	1
attr title  "dropped confirms, count"
scalar ExamTaskNetwork_no_CCTV.BrowsingLaptop[4].wlan[0].agent 	acceptConfirm:count 	43
attr title  "accepted confirms, count"
scalar ExamTaskNetwork_no_CCTV.BrowsingLaptop[4].wlan[0].agent 	sentRequest:count 	44
attr title  "sent requests, count"
scalar ExamTaskNetwork_no_CCTV.BrowsingLaptop[4].wlan[0].mgmt 	dropPkByQueue:count 	0
attr interpolationmode  none
attr source  dropPkByQueue
attr title  "packets dropped by queue, count"
scalar ExamTaskNetwork_no_CCTV.BrowsingLaptop[4].wlan[0].mgmt 	dropPkByQueue:sum(packetBytes) 	0
attr interpolationmode  none
attr source  dropPkByQueue
attr title  "packets dropped by queue, sum(packetBytes)"
scalar ExamTaskNetwork_no_CCTV.BrowsingLaptop[4].wlan[0].mgmt 	dataQueueLen:max 	1
attr interpolationmode  sample-hold
attr title  "data queue length, max"
scalar ExamTaskNetwork_no_CCTV.BrowsingLaptop[4].wlan[0].mgmt 	dataQueueLen:timeavg 	2.5717720080589e-06
attr interpolationmode  sample-hold
attr title  "data queue length, timeavg"
scalar ExamTaskNetwork_no_CCTV.BrowsingLaptop[4].wlan[0].mac 	"number of received packets" 	16051
scalar ExamTaskNetwork_no_CCTV.BrowsingLaptop[4].wlan[0].mac 	"number of collisions" 	49179
scalar ExamTaskNetwork_no_CCTV.BrowsingLaptop[4].wlan[0].mac 	"number of internal collisions" 	0
scalar ExamTaskNetwork_no_CCTV.BrowsingLaptop[4].wlan[0].mac 	"number of retry for AC 0" 	97
scalar ExamTaskNetwork_no_CCTV.BrowsingLaptop[4].wlan[0].mac 	"sent and received bits" 	5992160
scalar ExamTaskNetwork_no_CCTV.BrowsingLaptop[4].wlan[0].mac 	"sent packet within AC 0" 	7752
scalar ExamTaskNetwork_no_CCTV.BrowsingLaptop[4].wlan[0].mac 	"sent in TXOP " 	0
scalar ExamTaskNetwork_no_CCTV.BrowsingLaptop[4].wlan[0].mac 	"sentWithoutRetry AC 0" 	7705
scalar ExamTaskNetwork_no_CCTV.BrowsingLaptop[4].wlan[0].mac 	"numGivenUp AC 0" 	1
scalar ExamTaskNetwork_no_CCTV.BrowsingLaptop[4].wlan[0].mac 	"numDropped AC 0" 	0
scalar ExamTaskNetwork_no_CCTV.BrowsingLaptop[4].wlan[0].mac 	rcvdPkFromHL:count 	7768
attr interpolationmode  none
attr source  packetReceivedFromUpper
attr title  "packets received from higher layer, count"
scalar ExamTaskNetwork_no_CCTV.BrowsingLaptop[4].wlan[0].mac 	rcvdPkFromHL:sum(packetBytes) 	749054
attr interpolationmode  none
attr source  packetReceivedFromUpper
attr title  "packets received from higher layer, sum(packetBytes)"
scalar ExamTaskNetwork_no_CCTV.BrowsingLaptop[4].wlan[0].mac 	passedUpPk:count 	26148
attr interpolationmode  none
attr source  packetSentToUpper
attr title  "packets passed to higher layer, count"
scalar ExamTaskNetwork_no_CCTV.BrowsingLaptop[4].wlan[0].mac 	passedUpPk:sum(packetBytes) 	14258695
attr interpolationmode  none
attr source  packetSentToUpper
attr title  "packets passed to higher layer, sum(packetBytes)"
scalar ExamTaskNetwork_no_CCTV.BrowsingLaptop[4].wlan[0].mac 	rcvdPkFromLL:count 	3782386
attr interpolationmode  none
attr source  packetReceivedFromLower
attr title  "packets received from lower layer, count"
scalar ExamTaskNetwork_no_CCTV.BrowsingLaptop[4].wlan[0].mac 	rcvdPkFromLL:sum(packetBytes) 	1437682045
attr interpolationmode  none
attr source  packetReceivedFromLower
attr title  "packets received from lower layer, sum(packetBytes)"
scalar ExamTaskNetwork_no_CCTV.BrowsingLaptop[4].wlan[0].mac 	sentDownPk:count 	23916
attr interpolationmode  none
attr source  packetSentToLower
attr title  "packets sent to lower layer, count"
scalar ExamTaskNetwork_no_CCTV.BrowsingLaptop[4].wlan[0].mac 	sentDownPk:sum(packetBytes) 	999984
attr interpolationmode  none
attr source  packetSentToLower
attr title  "packets sent to lower layer, sum(packetBytes)"
scalar ExamTaskNetwork_no_CCTV.BrowsingLaptop[4].wlan[0].radio 	lossRate:min 	0
attr interpolationmode  backward-sample-hold
attr title  "packet loss rate, min"
scalar ExamTaskNetwork_no_CCTV.BrowsingLaptop[4].wlan[0].radio 	lossRate:max 	0.26
attr interpolationmode  backward-sample-hold
attr title  "packet loss rate, max"
scalar ExamTaskNetwork_no_CCTV.BrowsingLaptop[4].wlan[0].radio 	lossRate:timeavg 	0.013018196270911
attr interpolationmode  backward-sample-hold
attr title  "packet loss rate, timeavg"
statistic ExamTaskNetwork_no_CCTV.BrowsingLaptop[4].wlan[0].radio 	channelNo:histogram
field count 1
field mean 0
field stddev -nan
field sum 0
field sqrsum 0
field min 0
field max 0
attr interpolationmode  sample-hold
attr title  "channel no, histogram"
bin	-INF	0
bin	-0.5	0
bin	-0.46666666666667	0
bin	-0.43333333333333	0
bin	-0.4	0
bin	-0.36666666666667	0
bin	-0.33333333333333	0
bin	-0.3	0
bin	-0.26666666666667	0
bin	-0.23333333333333	0
bin	-0.2	0
bin	-0.16666666666667	0
bin	-0.13333333333333	0
bin	-0.1	0
bin	-0.066666666666667	0
bin	-0.033333333333333	0
bin	0	1
bin	0.033333333333333	0
bin	0.066666666666667	0
bin	0.1	0
bin	0.13333333333333	0
bin	0.16666666666667	0
bin	0.2	0
bin	0.23333333333333	0
bin	0.26666666666667	0
bin	0.3	0
bin	0.33333333333333	0
bin	0.36666666666667	0
bin	0.4	0
bin	0.43333333333333	0
bin	0.46666666666667	0
bin	0.5	0
scalar ExamTaskNetwork_no_CCTV.BrowsingLaptop[4].wlan[0].radio 	radioState:count 	7612720
attr interpolationmode  sample-hold
attr title  "radio state (enum), count"
scalar ExamTaskNetwork_no_CCTV.BrowsingLaptop[4].wlan[0].radio 	bitrate:min 	54000000
attr interpolationmode  sample-hold
attr title  "tx bitrate, min"
attr unit  bps
scalar ExamTaskNetwork_no_CCTV.BrowsingLaptop[4].wlan[0].radio 	bitrate:max 	54000000
attr interpolationmode  sample-hold
attr title  "tx bitrate, max"
attr unit  bps
scalar ExamTaskNetwork_no_CCTV.BrowsingLaptop[4].wlan[0].radio 	bitrate:timeavg 	54000000
attr interpolationmode  sample-hold
attr title  "tx bitrate, timeavg"
attr unit  bps
scalar ExamTaskNetwork_no_CCTV.BrowsingLaptop[4].tcpApp[0] 	numActiveSessions:max 	1
attr interpolationmode  sample-hold
attr source  sum(connect)
attr title  "number of active sessions, max"
scalar ExamTaskNetwork_no_CCTV.BrowsingLaptop[4].tcpApp[0] 	numActiveSessions:timeavg 	0.73811925684579
attr interpolationmode  sample-hold
attr source  sum(connect)
attr title  "number of active sessions, timeavg"
scalar ExamTaskNetwork_no_CCTV.BrowsingLaptop[4].tcpApp[0] 	numSessions:last 	14
attr source  sum(connect+1)/2
attr title  "total number of sessions, last"
scalar ExamTaskNetwork_no_CCTV.BrowsingLaptop[4].tcpApp[0] 	sentPk:count 	14
attr interpolationmode  none
attr source  sentPk
attr title  "packets sent, count"
scalar ExamTaskNetwork_no_CCTV.BrowsingLaptop[4].tcpApp[0] 	sentPk:sum(packetBytes) 	114688
attr interpolationmode  none
attr source  sentPk
attr title  "packets sent, sum(packetBytes)"
scalar ExamTaskNetwork_no_CCTV.BrowsingLaptop[4].tcpApp[0] 	rcvdPk:count 	13
attr interpolationmode  none
attr source  rcvdPk
attr title  "packets received, count"
scalar ExamTaskNetwork_no_CCTV.BrowsingLaptop[4].tcpApp[0] 	rcvdPk:sum(packetBytes) 	8734274
attr interpolationmode  none
attr source  rcvdPk
attr title  "packets received, sum(packetBytes)"
statistic ExamTaskNetwork_no_CCTV.BrowsingLaptop[4].tcpApp[0] 	endToEndDelay:histogram
field count 13
field mean 45.920102262048
field stddev 32.423739375208
field sum 596.96132940663
field sqrsum 40028.111793698
field min 1.953693241994
field max 118.78629472999
attr interpolationmode  none
attr source  messageAge(rcvdPk)
attr title  "end-to-end delay, histogram"
attr unit  s
bin	-INF	0
bin	-56.462607502002	0
bin	-48.673767402803	0
bin	-40.884927303603	0
bin	-33.096087204404	0
bin	-25.307247105204	0
bin	-17.518407006005	0
bin	-9.7295669068053	0
bin	-1.9407268076058	1
bin	5.8481132915938	0
bin	13.636953390793	2
bin	21.425793489993	3
bin	29.214633589192	0
bin	37.003473688392	2
bin	44.792313787591	0
bin	52.581153886791	1
bin	60.36999398599	1
bin	68.15883408519	1
bin	75.94767418439	0
bin	83.736514283589	1
bin	91.525354382789	0
bin	99.314194481988	0
bin	107.10303458119	0
bin	114.89187468039	1
bin	122.68071477959	0
bin	130.46955487879	0
bin	138.25839497799	0
bin	146.04723507719	0
bin	153.83607517638	0
bin	161.62491527558	0
bin	169.41375537478	0
bin	177.20259547398	0
scalar ExamTaskNetwork_no_CCTV.BrowsingLaptop[5].networkLayer.arp 	initiatedARPResolution:count 	8
attr title  "ARP initiated resolutions, count"
scalar ExamTaskNetwork_no_CCTV.BrowsingLaptop[5].networkLayer.arp 	sentReply:count 	5
attr title  "ARP replies sent, count"
scalar ExamTaskNetwork_no_CCTV.BrowsingLaptop[5].networkLayer.arp 	sentReq:count 	9
attr title  "ARP request sent, count"
scalar ExamTaskNetwork_no_CCTV.BrowsingLaptop[5].networkLayer.arp 	failedARPResolution:count 	0
attr title  "ARP failed resolutions, count"
scalar ExamTaskNetwork_no_CCTV.BrowsingLaptop[5].networkLayer.arp 	completedARPResolution:count 	259
attr title  "ARP completed resolutions, count"
scalar ExamTaskNetwork_no_CCTV.BrowsingLaptop[5].lo0.lo 	rcvdPkFromHL:count 	0
attr interpolationmode  none
attr source  packetReceivedFromUpper
attr title  "packets received from higher layer, count"
scalar ExamTaskNetwork_no_CCTV.BrowsingLaptop[5].lo0.lo 	rcvdPkFromHL:sum(packetBytes) 	0
attr interpolationmode  none
attr source  packetReceivedFromUpper
attr title  "packets received from higher layer, sum(packetBytes)"
scalar ExamTaskNetwork_no_CCTV.BrowsingLaptop[5].lo0.lo 	passedUpPk:count 	0
attr interpolationmode  none
attr source  packetSentToUpper
attr title  "packets passed to higher layer, count"
scalar ExamTaskNetwork_no_CCTV.BrowsingLaptop[5].lo0.lo 	passedUpPk:sum(packetBytes) 	0
attr interpolationmode  none
attr source  packetSentToUpper
attr title  "packets passed to higher layer, sum(packetBytes)"
scalar ExamTaskNetwork_no_CCTV.BrowsingLaptop[5].lo0.lo 	droppedPkBitError:count 	0
attr interpolationmode  none
attr source  dropPkBitError
attr title  "packets dropped/bit error, count"
scalar ExamTaskNetwork_no_CCTV.BrowsingLaptop[5].lo0.lo 	droppedPkBitError:sum(packetBytes) 	0
attr interpolationmode  none
attr source  dropPkBitError
attr title  "packets dropped/bit error, sum(packetBytes)"
scalar ExamTaskNetwork_no_CCTV.BrowsingLaptop[5].wlan[0].agent 	dropConfirm:count 	0
attr title  "dropped confirms, count"
scalar ExamTaskNetwork_no_CCTV.BrowsingLaptop[5].wlan[0].agent 	acceptConfirm:count 	42
attr title  "accepted confirms, count"
scalar ExamTaskNetwork_no_CCTV.BrowsingLaptop[5].wlan[0].agent 	sentRequest:count 	42
attr title  "sent requests, count"
scalar ExamTaskNetwork_no_CCTV.BrowsingLaptop[5].wlan[0].mgmt 	dropPkByQueue:count 	22
attr interpolationmode  none
attr source  dropPkByQueue
attr title  "packets dropped by queue, count"
scalar ExamTaskNetwork_no_CCTV.BrowsingLaptop[5].wlan[0].mgmt 	dropPkByQueue:sum(packetBytes) 	2156
attr interpolationmode  none
attr source  dropPkByQueue
attr title  "packets dropped by queue, sum(packetBytes)"
scalar ExamTaskNetwork_no_CCTV.BrowsingLaptop[5].wlan[0].mgmt 	dataQueueLen:max 	50
attr interpolationmode  sample-hold
attr title  "data queue length, max"
scalar ExamTaskNetwork_no_CCTV.BrowsingLaptop[5].wlan[0].mgmt 	dataQueueLen:timeavg 	0.0088675685167688
attr interpolationmode  sample-hold
attr title  "data queue length, timeavg"
scalar ExamTaskNetwork_no_CCTV.BrowsingLaptop[5].wlan[0].mac 	"number of received packets" 	14344
scalar ExamTaskNetwork_no_CCTV.BrowsingLaptop[5].wlan[0].mac 	"number of collisions" 	49056
scalar ExamTaskNetwork_no_CCTV.BrowsingLaptop[5].wlan[0].mac 	"number of internal collisions" 	0
scalar ExamTaskNetwork_no_CCTV.BrowsingLaptop[5].wlan[0].mac 	"number of retry for AC 0" 	285
scalar ExamTaskNetwork_no_CCTV.BrowsingLaptop[5].wlan[0].mac 	"sent and received bits" 	6122656
scalar ExamTaskNetwork_no_CCTV.BrowsingLaptop[5].wlan[0].mac 	"sent packet within AC 0" 	7706
scalar ExamTaskNetwork_no_CCTV.BrowsingLaptop[5].wlan[0].mac 	"sent in TXOP " 	0
scalar ExamTaskNetwork_no_CCTV.BrowsingLaptop[5].wlan[0].mac 	"sentWithoutRetry AC 0" 	7485
scalar ExamTaskNetwork_no_CCTV.BrowsingLaptop[5].wlan[0].mac 	"numGivenUp AC 0" 	0
scalar ExamTaskNetwork_no_CCTV.BrowsingLaptop[5].wlan[0].mac 	"numDropped AC 0" 	0
scalar ExamTaskNetwork_no_CCTV.BrowsingLaptop[5].wlan[0].mac 	rcvdPkFromHL:count 	7720
attr interpolationmode  none
attr source  packetReceivedFromUpper
attr title  "packets received from higher layer, count"
scalar ExamTaskNetwork_no_CCTV.BrowsingLaptop[5].wlan[0].mac 	rcvdPkFromHL:sum(packetBytes) 	765332
attr interpolationmode  none
attr source  packetReceivedFromUpper
attr title  "packets received from higher layer, sum(packetBytes)"
scalar ExamTaskNetwork_no_CCTV.BrowsingLaptop[5].wlan[0].mac 	passedUpPk:count 	24445
attr interpolationmode  none
attr source  packetSentToUpper
attr title  "packets passed to higher layer, count"
scalar ExamTaskNetwork_no_CCTV.BrowsingLaptop[5].wlan[0].mac 	passedUpPk:sum(packetBytes) 	12800290
attr interpolationmode  none
attr source  packetSentToUpper
attr title  "packets passed to higher layer, sum(packetBytes)"
scalar ExamTaskNetwork_no_CCTV.BrowsingLaptop[5].wlan[0].mac 	rcvdPkFromLL:count 	3783953
attr interpolationmode  none
attr source  packetReceivedFromLower
attr title  "packets received from lower layer, count"
scalar ExamTaskNetwork_no_CCTV.BrowsingLaptop[5].wlan[0].mac 	rcvdPkFromLL:sum(packetBytes) 	1438005828
attr interpolationmode  none
attr source  packetReceivedFromLower
attr title  "packets received from lower layer, sum(packetBytes)"
scalar ExamTaskNetwork_no_CCTV.BrowsingLaptop[5].wlan[0].mac 	sentDownPk:count 	22349
attr interpolationmode  none
attr source  packetSentToLower
attr title  "packets sent to lower layer, count"
scalar ExamTaskNetwork_no_CCTV.BrowsingLaptop[5].wlan[0].mac 	sentDownPk:sum(packetBytes) 	1022660
attr interpolationmode  none
attr source  packetSentToLower
attr title  "packets sent to lower layer, sum(packetBytes)"
scalar ExamTaskNetwork_no_CCTV.BrowsingLaptop[5].wlan[0].radio 	lossRate:min 	0
attr interpolationmode  backward-sample-hold
attr title  "packet loss rate, min"
scalar ExamTaskNetwork_no_CCTV.BrowsingLaptop[5].wlan[0].radio 	lossRate:max 	0.26
attr interpolationmode  backward-sample-hold
attr title  "packet loss rate, max"
scalar ExamTaskNetwork_no_CCTV.BrowsingLaptop[5].wlan[0].radio 	lossRate:timeavg 	0.012981287120529
attr interpolationmode  backward-sample-hold
attr title  "packet loss rate, timeavg"
statistic ExamTaskNetwork_no_CCTV.BrowsingLaptop[5].wlan[0].radio 	channelNo:histogram
field count 1
field mean 0
field stddev -nan
field sum 0
field sqrsum 0
field min 0
field max 0
attr interpolationmode  sample-hold
attr title  "channel no, histogram"
bin	-INF	0
bin	-0.5	0
bin	-0.46666666666667	0
bin	-0.43333333333333	0
bin	-0.4	0
bin	-0.36666666666667	0
bin	-0.33333333333333	0
bin	-0.3	0
bin	-0.26666666666667	0
bin	-0.23333333333333	0
bin	-0.2	0
bin	-0.16666666666667	0
bin	-0.13333333333333	0
bin	-0.1	0
bin	-0.066666666666667	0
bin	-0.033333333333333	0
bin	0	1
bin	0.033333333333333	0
bin	0.066666666666667	0
bin	0.1	0
bin	0.13333333333333	0
bin	0.16666666666667	0
bin	0.2	0
bin	0.23333333333333	0
bin	0.26666666666667	0
bin	0.3	0
bin	0.33333333333333	0
bin	0.36666666666667	0
bin	0.4	0
bin	0.43333333333333	0
bin	0.46666666666667	0
bin	0.5	0
scalar ExamTaskNetwork_no_CCTV.BrowsingLaptop[5].wlan[0].radio 	radioState:count 	7612962
attr interpolationmode  sample-hold
attr title  "radio state (enum), count"
scalar ExamTaskNetwork_no_CCTV.BrowsingLaptop[5].wlan[0].radio 	bitrate:min 	54000000
attr interpolationmode  sample-hold
attr title  "tx bitrate, min"
attr unit  bps
scalar ExamTaskNetwork_no_CCTV.BrowsingLaptop[5].wlan[0].radio 	bitrate:max 	54000000
attr interpolationmode  sample-hold
attr title  "tx bitrate, max"
attr unit  bps
scalar ExamTaskNetwork_no_CCTV.BrowsingLaptop[5].wlan[0].radio 	bitrate:timeavg 	54000000
attr interpolationmode  sample-hold
attr title  "tx bitrate, timeavg"
attr unit  bps
scalar ExamTaskNetwork_no_CCTV.BrowsingLaptop[5].tcpApp[0] 	numActiveSessions:max 	1
attr interpolationmode  sample-hold
attr source  sum(connect)
attr title  "number of active sessions, max"
scalar ExamTaskNetwork_no_CCTV.BrowsingLaptop[5].tcpApp[0] 	numActiveSessions:timeavg 	0.68475865317535
attr interpolationmode  sample-hold
attr source  sum(connect)
attr title  "number of active sessions, timeavg"
scalar ExamTaskNetwork_no_CCTV.BrowsingLaptop[5].tcpApp[0] 	numSessions:last 	15
attr source  sum(connect+1)/2
attr title  "total number of sessions, last"
scalar ExamTaskNetwork_no_CCTV.BrowsingLaptop[5].tcpApp[0] 	sentPk:count 	15
attr interpolationmode  none
attr source  sentPk
attr title  "packets sent, count"
scalar ExamTaskNetwork_no_CCTV.BrowsingLaptop[5].tcpApp[0] 	sentPk:sum(packetBytes) 	122880
attr interpolationmode  none
attr source  sentPk
attr title  "packets sent, sum(packetBytes)"
scalar ExamTaskNetwork_no_CCTV.BrowsingLaptop[5].tcpApp[0] 	rcvdPk:count 	14
attr interpolationmode  none
attr source  rcvdPk
attr title  "packets received, count"
scalar ExamTaskNetwork_no_CCTV.BrowsingLaptop[5].tcpApp[0] 	rcvdPk:sum(packetBytes) 	9485730
attr interpolationmode  none
attr source  rcvdPk
attr title  "packets received, sum(packetBytes)"
statistic ExamTaskNetwork_no_CCTV.BrowsingLaptop[5].tcpApp[0] 	endToEndDelay:histogram
field count 14
field mean 46.292702266648
field stddev 37.929075171088
field sum 648.09783173308
field sqrsum 48704.191627423
field min 6.627523881048
field max 129.13863797595
attr interpolationmode  none
attr source  messageAge(rcvdPk)
attr title  "end-to-end delay, histogram"
attr unit  s
bin	-INF	0
bin	-54.628033166402	0
bin	-46.460625560076	0
bin	-38.293217953749	0
bin	-30.125810347422	0
bin	-21.958402741096	0
bin	-13.790995134769	0
bin	-5.6235875284421	0
bin	2.5438200778846	2
bin	10.711227684211	1
bin	18.878635290538	2
bin	27.046042896865	3
bin	35.213450503192	0
bin	43.380858109518	2
bin	51.548265715845	0
bin	59.715673322172	1
bin	67.883080928498	0
[...]
scalar ExamTaskNetwork_no_CCTV.MainRouter.eth[1].mac 	full-duplex 	1
scalar ExamTaskNetwork_no_CCTV.MainRouter.eth[1].mac 	"frames/sec sent" 	24.805999961986
scalar ExamTaskNetwork_no_CCTV.MainRouter.eth[1].mac 	"frames/sec rcvd" 	24.979999961719
scalar ExamTaskNetwork_no_CCTV.MainRouter.eth[1].mac 	"bits/sec sent" 	286767.85556054
scalar ExamTaskNetwork_no_CCTV.MainRouter.eth[1].mac 	"bits/sec rcvd" 	288780.68755745
scalar ExamTaskNetwork_no_CCTV.MainRouter.eth[1].mac 	"rx channel idle (%)" 	99.709620592445
scalar ExamTaskNetwork_no_CCTV.MainRouter.eth[1].mac 	"rx channel utilization (%)" 	0.290379407555
scalar ExamTaskNetwork_no_CCTV.MainRouter.eth[1].mac 	rxPkFromHL:count 	24806
attr interpolationmode  none
attr source  rxPkFromHL
attr title  "packet bytes from higher layer, count"
scalar ExamTaskNetwork_no_CCTV.MainRouter.eth[1].mac 	rxPkFromHL:sum(packetBytes) 	35845982
attr interpolationmode  none
attr source  rxPkFromHL
attr title  "packet bytes from higher layer, sum(packetBytes)"
scalar ExamTaskNetwork_no_CCTV.MainRouter.eth[1].mac 	rxPausePkUnits:count 	0
attr interpolationmode  none
attr title  "pause units received, count"
scalar ExamTaskNetwork_no_CCTV.MainRouter.eth[1].mac 	rxPausePkUnits:sum 	0
attr interpolationmode  none
attr title  "pause units received, sum"
scalar ExamTaskNetwork_no_CCTV.MainRouter.eth[1].mac 	txPausePkUnits:count 	0
attr interpolationmode  none
attr title  "pause units sent, count"
scalar ExamTaskNetwork_no_CCTV.MainRouter.eth[1].mac 	txPausePkUnits:sum 	0
attr interpolationmode  none
attr title  "pause units sent, sum"
scalar ExamTaskNetwork_no_CCTV.MainRouter.eth[1].mac 	txPk:count 	24806
attr interpolationmode  none
attr source  txPk
attr title  "packets transmitted, count"
scalar ExamTaskNetwork_no_CCTV.MainRouter.eth[1].mac 	txPk:sum(packetBytes) 	35845982
attr interpolationmode  none
attr source  txPk
attr title  "packets transmitted, sum(packetBytes)"
scalar ExamTaskNetwork_no_CCTV.MainRouter.eth[1].mac 	droppedPkNotForUs:count 	0
attr interpolationmode  none
attr source  dropPkNotForUs
attr title  "packets dropped/not for us, count"
scalar ExamTaskNetwork_no_CCTV.MainRouter.eth[1].mac 	droppedPkNotForUs:sum(packetBytes) 	0
attr interpolationmode  none
attr source  dropPkNotForUs
attr title  "packets dropped/not for us, sum(packetBytes)"
scalar ExamTaskNetwork_no_CCTV.MainRouter.eth[1].mac 	passedUpPk:count 	24980
attr interpolationmode  none
attr source  packetSentToUpper
attr title  "packets passed to higher layer, count"
scalar ExamTaskNetwork_no_CCTV.MainRouter.eth[1].mac 	passedUpPk:sum(packetBytes) 	36097586
attr interpolationmode  none
attr source  packetSentToUpper
attr title  "packets passed to higher layer, sum(packetBytes)"
scalar ExamTaskNetwork_no_CCTV.MainRouter.eth[1].mac 	droppedPkBitError:count 	0
attr interpolationmode  none
attr source  dropPkBitError
attr title  "packets dropped/bit error, count"
scalar ExamTaskNetwork_no_CCTV.MainRouter.eth[1].mac 	droppedPkBitError:sum(packetBytes) 	0
attr interpolationmode  none
attr source  dropPkBitError
attr title  "packets dropped/bit error, sum(packetBytes)"
scalar ExamTaskNetwork_no_CCTV.MainRouter.eth[1].mac 	droppedPkIfaceDown:count 	0
attr interpolationmode  none
attr source  dropPkIfaceDown
attr title  "packets dropped/interface down, count"
scalar ExamTaskNetwork_no_CCTV.MainRouter.eth[1].mac 	droppedPkIfaceDown:sum(packetBytes) 	0
attr interpolationmode  none
attr source  dropPkIfaceDown
attr title  "packets dropped/interface down, sum(packetBytes)"
scalar ExamTaskNetwork_no_CCTV.MainRouter.eth[1].mac 	rxPkOk:count 	24980
attr interpolationmode  none
attr source  rxPkOk
attr title  "packets received OK, count"
scalar ExamTaskNetwork_no_CCTV.MainRouter.eth[1].mac 	rxPkOk:sum(packetBytes) 	36097586
attr interpolationmode  none
attr source  rxPkOk
attr title  "packets received OK, sum(packetBytes)"
scalar ExamTaskNetwork_no_CCTV.MainRouter.eth[1].encap 	pauseSent:count 	0
attr title  "pause sent, count"
scalar ExamTaskNetwork_no_CCTV.MainRouter.eth[1].encap 	pauseSent:sum 	0
attr title  "pause sent, sum"
scalar ExamTaskNetwork_no_CCTV.MainRouter.eth[1].encap 	decapPk:count 	24980
attr interpolationmode  none
attr source  decapPk
attr title  "packets decapsulated, count"
scalar ExamTaskNetwork_no_CCTV.MainRouter.eth[1].encap 	decapPk:sum(packetBytes) 	35647640
attr interpolationmode  none
attr source  decapPk
attr title  "packets decapsulated, sum(packetBytes)"
scalar ExamTaskNetwork_no_CCTV.MainRouter.eth[1].encap 	encapPk:count 	24806
attr interpolationmode  none
attr source  encapPk
attr title  "packets encapsulated, count"
scalar ExamTaskNetwork_no_CCTV.MainRouter.eth[1].encap 	encapPk:sum(packetBytes) 	35399168
attr interpolationmode  none
attr source  encapPk
attr title  "packets encapsulated, sum(packetBytes)"
scalar ExamTaskNetwork_no_CCTV.MainRouter.ppp[0].outputHook[0] 	duration 	1000.0000015325
scalar ExamTaskNetwork_no_CCTV.MainRouter.ppp[0].outputHook[0] 	"total packets" 	1193562
scalar ExamTaskNetwork_no_CCTV.MainRouter.ppp[0].outputHook[0] 	"total bits" 	5186122392
scalar ExamTaskNetwork_no_CCTV.MainRouter.ppp[0].outputHook[0] 	"avg throughput (bit/s)" 	5186122.3840525
scalar ExamTaskNetwork_no_CCTV.MainRouter.ppp[0].outputHook[0] 	"avg packets/s" 	1193.5619981709
scalar ExamTaskNetwork_no_CCTV.MainRouter.ppp[0].inputHook[0] 	duration 	1000.0000015325
scalar ExamTaskNetwork_no_CCTV.MainRouter.ppp[0].inputHook[0] 	"total packets" 	765464
scalar ExamTaskNetwork_no_CCTV.MainRouter.ppp[0].inputHook[0] 	"total bits" 	5024031136
scalar ExamTaskNetwork_no_CCTV.MainRouter.ppp[0].inputHook[0] 	"avg throughput (bit/s)" 	5024031.1283009
scalar ExamTaskNetwork_no_CCTV.MainRouter.ppp[0].inputHook[0] 	"avg packets/s" 	765.46399882696
statistic ExamTaskNetwork_no_CCTV.MainRouter.ppp[0].queue 	queueingTime:histogram
field count 1173440
field mean 0.00080508467937282
field stddev 0.0019859870153053
field sum 944.71856616324
field sqrsum 5.3887913338193
field min 0
field max 0.039346930519
attr interpolationmode  none
attr title  "queueing time, histogram"
bin	-INF	0
bin	-0.000238293336	0
bin	-0.0002065208912	0
bin	-0.0001747484464	0
bin	-0.0001429760016	0
bin	-0.0001112035568	0
bin	-7.9431112e-05	0
bin	-4.76586672e-05	0
bin	-1.58862224e-05	561960
bin	1.58862224e-05	4619
bin	4.76586672e-05	3484
bin	7.9431112e-05	5970
bin	0.0001112035568	3192
bin	0.0001429760016	4451
bin	0.0001747484464	4556
bin	0.0002065208912	4094
bin	0.000238293336	3959
bin	0.0002700657808	2686
bin	0.0003018382256	3806
bin	0.0003336106704	3613
bin	0.0003653831152	2526
bin	0.00039715556	2347
bin	0.0004289280048	2204
bin	0.0004607004496	2401
bin	0.0004924728944	2539
bin	0.0005242453392	2907
bin	0.000556017784	5145
bin	0.0005877902288	6441
bin	0.0006195626736	8368
bin	0.0006513351184	4745
bin	0.0006831075632	2134
bin	0.000714880008	525293
scalar ExamTaskNetwork_no_CCTV.MainRouter.ppp[0].queue 	dropPk:count 	20122
attr interpolationmode  none
attr source  dropPkByQueue
attr title  "dropped packets, count"
scalar ExamTaskNetwork_no_CCTV.MainRouter.ppp[0].queue 	dropPk:sum(packetBytes) 	14531539
attr interpolationmode  none
attr source  dropPkByQueue
attr title  "dropped packets, sum(packetBytes)"
scalar ExamTaskNetwork_no_CCTV.MainRouter.ppp[0].queue 	queueLength:max 	50
attr interpolationmode  sample-hold
attr title  "queue length, max"
scalar ExamTaskNetwork_no_CCTV.MainRouter.ppp[0].queue 	queueLength:timeavg 	0.94471856471623
attr interpolationmode  sample-hold
attr title  "queue length, timeavg"
scalar ExamTaskNetwork_no_CCTV.MainRouter.ppp[0].queue 	rcvdPk:count 	1193562
attr interpolationmode  none
attr title  "received packets, count"
scalar ExamTaskNetwork_no_CCTV.MainRouter.ppp[0].queue 	rcvdPk:sum(packetBytes) 	648265299
attr interpolationmode  none
attr title  "received packets, sum(packetBytes)"
scalar ExamTaskNetwork_no_CCTV.MainRouter.ppp[0].ppp 	rcvdPkFromHL:count 	1173440
attr interpolationmode  none
attr source  packetReceivedFromUpper
attr title  "packets received from higher layer, count"
scalar ExamTaskNetwork_no_CCTV.MainRouter.ppp[0].ppp 	rcvdPkFromHL:sum(packetBytes) 	633733760
attr interpolationmode  none
attr source  packetReceivedFromUpper
attr title  "packets received from higher layer, sum(packetBytes)"
scalar ExamTaskNetwork_no_CCTV.MainRouter.ppp[0].ppp 	passedUpPk:count 	765464
attr interpolationmode  none
attr source  packetSentToUpper
attr title  "packets passed to higher layer, count"
scalar ExamTaskNetwork_no_CCTV.MainRouter.ppp[0].ppp 	passedUpPk:sum(packetBytes) 	628003892
attr interpolationmode  none
attr source  packetSentToUpper
attr title  "packets passed to higher layer, sum(packetBytes)"
scalar ExamTaskNetwork_no_CCTV.MainRouter.ppp[0].ppp 	txPk:count 	1173440
attr interpolationmode  none
attr source  packetSentToLower
attr title  "packets transmitted, count"
scalar ExamTaskNetwork_no_CCTV.MainRouter.ppp[0].ppp 	txPk:sum(packetBytes) 	641947840
attr interpolationmode  none
attr source  packetSentToLower
attr title  "packets transmitted, sum(packetBytes)"
scalar ExamTaskNetwork_no_CCTV.MainRouter.ppp[0].ppp 	droppedPkBitError:count 	0
attr interpolationmode  none
attr source  dropPkBitError
attr title  "packets dropped/bit error, count"
scalar ExamTaskNetwork_no_CCTV.MainRouter.ppp[0].ppp 	droppedPkBitError:sum(packetBytes) 	0
attr interpolationmode  none
attr source  dropPkBitError
attr title  "packets dropped/bit error, sum(packetBytes)"
scalar ExamTaskNetwork_no_CCTV.MainRouter.ppp[0].ppp 	droppedPkIfaceDown:count 	0
attr interpolationmode  none
attr source  dropPkIfaceDown
attr title  "packets dropped/interface down, count"
scalar ExamTaskNetwork_no_CCTV.MainRouter.ppp[0].ppp 	droppedPkIfaceDown:sum(packetBytes) 	0
attr interpolationmode  none
attr source  dropPkIfaceDown
attr title  "packets dropped/interface down, sum(packetBytes)"
scalar ExamTaskNetwork_no_CCTV.MainRouter.ppp[0].ppp 	rxPkOk:count 	765464
attr interpolationmode  none
attr source  rxPkOk
attr title  "packets received OK, count"
scalar ExamTaskNetwork_no_CCTV.MainRouter.ppp[0].ppp 	rxPkOk:sum(packetBytes) 	633362140
attr interpolationmode  none
attr source  rxPkOk
attr title  "packets received OK, sum(packetBytes)"
scalar ExamTaskNetwork_no_CCTV.MainRouter.ppp[0].ppp 	txState:timeavg 	0.42796522561674
attr interpolationmode  sample-hold
attr title  "tx state, timeavg"
scalar ExamTaskNetwork_no_CCTV.Internet.networkLayer.arp 	initiatedARPResolution:count 	432
attr title  "ARP initiated resolutions, count"
scalar ExamTaskNetwork_no_CCTV.Internet.networkLayer.arp 	sentReply:count 	1
attr title  "ARP replies sent, count"
scalar ExamTaskNetwork_no_CCTV.Internet.networkLayer.arp 	sentReq:count 	432
attr title  "ARP request sent, count"
scalar ExamTaskNetwork_no_CCTV.Internet.networkLayer.arp 	failedARPResolution:count 	0
attr title  "ARP failed resolutions, count"
scalar ExamTaskNetwork_no_CCTV.Internet.networkLayer.arp 	completedARPResolution:count 	433
attr title  "ARP completed resolutions, count"
scalar ExamTaskNetwork_no_CCTV.Internet.lo0.lo 	rcvdPkFromHL:count 	0
attr interpolationmode  none
attr source  packetReceivedFromUpper
attr title  "packets received from higher layer, count"
scalar ExamTaskNetwork_no_CCTV.Internet.lo0.lo 	rcvdPkFromHL:sum(packetBytes) 	0
attr interpolationmode  none
attr source  packetReceivedFromUpper
attr title  "packets received from higher layer, sum(packetBytes)"
scalar ExamTaskNetwork_no_CCTV.Internet.lo0.lo 	passedUpPk:count 	0
attr interpolationmode  none
attr source  packetSentToUpper
attr title  "packets passed to higher layer, count"
scalar ExamTaskNetwork_no_CCTV.Internet.lo0.lo 	passedUpPk:sum(packetBytes) 	0
attr interpolationmode  none
attr source  packetSentToUpper
attr title  "packets passed to higher layer, sum(packetBytes)"
scalar ExamTaskNetwork_no_CCTV.Internet.lo0.lo 	droppedPkBitError:count 	0
attr interpolationmode  none
attr source  dropPkBitError
attr title  "packets dropped/bit error, count"
scalar ExamTaskNetwork_no_CCTV.Internet.lo0.lo 	droppedPkBitError:sum(packetBytes) 	0
attr interpolationmode  none
attr source  dropPkBitError
attr title  "packets dropped/bit error, sum(packetBytes)"
scalar ExamTaskNetwork_no_CCTV.Internet.eth[0].mac 	"simulated time" 	1000.0000015325
scalar ExamTaskNetwork_no_CCTV.Internet.eth[0].mac 	full-duplex 	1
scalar ExamTaskNetwork_no_CCTV.Internet.eth[0].mac 	"frames/sec sent" 	1169.0569982085
scalar ExamTaskNetwork_no_CCTV.Internet.eth[0].mac 	"frames/sec rcvd" 	1124.3749982769
scalar ExamTaskNetwork_no_CCTV.Internet.eth[0].mac 	"bits/sec sent" 	5149927.5361079
scalar ExamTaskNetwork_no_CCTV.Internet.eth[0].mac 	"bits/sec rcvd" 	5041511.6082741
scalar ExamTaskNetwork_no_CCTV.Internet.eth[0].mac 	"rx channel idle (%)" 	94.886528391836
scalar ExamTaskNetwork_no_CCTV.Internet.eth[0].mac 	"rx channel utilization (%)" 	5.1134716081636
scalar ExamTaskNetwork_no_CCTV.Internet.eth[0].mac 	rxPkFromHL:count 	1169057
attr interpolationmode  none
attr source  rxPkFromHL
attr title  "packet bytes from higher layer, count"
scalar ExamTaskNetwork_no_CCTV.Internet.eth[0].mac 	rxPkFromHL:sum(packetBytes) 	643740943
attr interpolationmode  none
attr source  rxPkFromHL
attr title  "packet bytes from higher layer, sum(packetBytes)"
scalar ExamTaskNetwork_no_CCTV.Internet.eth[0].mac 	rxPausePkUnits:count 	0
attr interpolationmode  none
attr title  "pause units received, count"
scalar ExamTaskNetwork_no_CCTV.Internet.eth[0].mac 	rxPausePkUnits:sum 	0
attr interpolationmode  none
attr title  "pause units received, sum"
scalar ExamTaskNetwork_no_CCTV.Internet.eth[0].mac 	txPausePkUnits:count 	0
attr interpolationmode  none
attr title  "pause units sent, count"
scalar ExamTaskNetwork_no_CCTV.Internet.eth[0].mac 	txPausePkUnits:sum 	0
attr interpolationmode  none
attr title  "pause units sent, sum"
scalar ExamTaskNetwork_no_CCTV.Internet.eth[0].mac 	txPk:count 	1169057
attr interpolationmode  none
attr source  txPk
attr title  "packets transmitted, count"
scalar ExamTaskNetwork_no_CCTV.Internet.eth[0].mac 	txPk:sum(packetBytes) 	643740943
attr interpolationmode  none
attr source  txPk
attr title  "packets transmitted, sum(packetBytes)"
scalar ExamTaskNetwork_no_CCTV.Internet.eth[0].mac 	droppedPkNotForUs:count 	0
attr interpolationmode  none
attr source  dropPkNotForUs
attr title  "packets dropped/not for us, count"
scalar ExamTaskNetwork_no_CCTV.Internet.eth[0].mac 	droppedPkNotForUs:sum(packetBytes) 	0
attr interpolationmode  none
attr source  dropPkNotForUs
attr title  "packets dropped/not for us, sum(packetBytes)"
scalar ExamTaskNetwork_no_CCTV.Internet.eth[0].mac 	passedUpPk:count 	1124375
attr interpolationmode  none
attr source  packetSentToUpper
attr title  "packets passed to higher layer, count"
scalar ExamTaskNetwork_no_CCTV.Internet.eth[0].mac 	passedUpPk:sum(packetBytes) 	630188952
attr interpolationmode  none
attr source  packetSentToUpper
attr title  "packets passed to higher layer, sum(packetBytes)"
scalar ExamTaskNetwork_no_CCTV.Internet.eth[0].mac 	droppedPkBitError:count 	0
attr interpolationmode  none
attr source  dropPkBitError
attr title  "packets dropped/bit error, count"
scalar ExamTaskNetwork_no_CCTV.Internet.eth[0].mac 	droppedPkBitError:sum(packetBytes) 	0
attr interpolationmode  none
attr source  dropPkBitError
attr title  "packets dropped/bit error, sum(packetBytes)"
scalar ExamTaskNetwork_no_CCTV.Internet.eth[0].mac 	droppedPkIfaceDown:count 	0
attr interpolationmode  none
attr source  dropPkIfaceDown
attr title  "packets dropped/interface down, count"
scalar ExamTaskNetwork_no_CCTV.Internet.eth[0].mac 	droppedPkIfaceDown:sum(packetBytes) 	0
attr interpolationmode  none
attr source  dropPkIfaceDown
attr title  "packets dropped/interface down, sum(packetBytes)"
scalar ExamTaskNetwork_no_CCTV.Internet.eth[0].mac 	rxPkOk:count 	1124375
attr interpolationmode  none
attr source  rxPkOk
attr title  "packets received OK, count"
scalar ExamTaskNetwork_no_CCTV.Internet.eth[0].mac 	rxPkOk:sum(packetBytes) 	630188952
attr interpolationmode  none
attr source  rxPkOk
attr title  "packets received OK, sum(packetBytes)"
scalar ExamTaskNetwork_no_CCTV.Internet.eth[0].encap 	pauseSent:count 	0
attr title  "pause sent, count"
scalar ExamTaskNetwork_no_CCTV.Internet.eth[0].encap 	pauseSent:sum 	0
attr title  "pause sent, sum"
scalar ExamTaskNetwork_no_CCTV.Internet.eth[0].encap 	decapPk:count 	1124375
attr interpolationmode  none
attr source  decapPk
attr title  "packets decapsulated, count"
scalar ExamTaskNetwork_no_CCTV.Internet.eth[0].encap 	decapPk:sum(packetBytes) 	600257262
attr interpolationmode  none
attr source  decapPk
attr title  "packets decapsulated, sum(packetBytes)"
scalar ExamTaskNetwork_no_CCTV.Internet.eth[0].encap 	encapPk:count 	1169057
attr interpolationmode  none
attr source  encapPk
attr title  "packets encapsulated, count"
scalar ExamTaskNetwork_no_CCTV.Internet.eth[0].encap 	encapPk:sum(packetBytes) 	612641543
attr interpolationmode  none
attr source  encapPk
attr title  "packets encapsulated, sum(packetBytes)"
scalar ExamTaskNetwork_no_CCTV.Internet.tcpApp[0] 	sentPk:count 	738
attr interpolationmode  none
attr source  sentPk
attr title  "packets sent, count"
scalar ExamTaskNetwork_no_CCTV.Internet.tcpApp[0] 	sentPk:sum(packetBytes) 	512177495
attr interpolationmode  none
attr source  sentPk
attr title  "packets sent, sum(packetBytes)"
scalar ExamTaskNetwork_no_CCTV.Internet.tcpApp[0] 	rcvdPk:count 	738
attr interpolationmode  none
attr source  rcvdPk
attr title  "packets received, count"
scalar ExamTaskNetwork_no_CCTV.Internet.tcpApp[0] 	rcvdPk:sum(packetBytes) 	6045696
attr interpolationmode  none
attr source  rcvdPk
attr title  "packets received, sum(packetBytes)"
statistic ExamTaskNetwork_no_CCTV.Internet.tcpApp[0] 	endToEndDelay:histogram
field count 738
field mean 0.59786743595455
field stddev 1.091882551781
field sum 441.22616773446
field sqrsum 1142.4516901529
field min 0.207793084195
field max 9.375974857584
attr interpolationmode  none
attr source  messageAge(rcvdPk)
attr title  "end-to-end delay, histogram"
attr unit  s
bin	-INF	0
bin	-1.379834190837	0
bin	-1.1681481657618	0
bin	-0.9564621406866	0
bin	-0.7447761156114	0
bin	-0.5330900905362	0
bin	-0.321404065461	0
bin	-0.1097180403858	0
bin	0.1019679846894	597
bin	0.3136540097646	73
bin	0.5253400348398	0
bin	0.737026059915	0
bin	0.9487120849902	0
bin	1.1603981100654	0
bin	1.3720841351406	0
bin	1.5837701602158	0
bin	1.795456185291	0
bin	2.0071422103662	0
bin	2.2188282354414	0
bin	2.4305142605166	0
bin	2.6422002855918	0
bin	2.853886310667	8
bin	3.0655723357422	31
bin	3.2772583608174	23
bin	3.4889443858926	0
bin	3.7006304109678	0
bin	3.912316436043	0
bin	4.1240024611182	0
bin	4.3356884861934	0
bin	4.5473745112686	0
bin	4.7590605363438	0
bin	4.970746561419	6
scalar ExamTaskNetwork_no_CCTV.Internet.tcpApp[1] 	rcvdPk:count 	0
attr interpolationmode  none
attr source  rcvdPk
attr title  "packets received, count"
scalar ExamTaskNetwork_no_CCTV.Internet.tcpApp[1] 	rcvdPk:sum(packetBytes) 	0
attr interpolationmode  none
attr source  rcvdPk
attr title  "packets received, sum(packetBytes)"
statistic ExamTaskNetwork_no_CCTV.Internet.tcpApp[1] 	endToEndDelay:histogram
field count 0
field mean -nan
field stddev -nan
field sum 0
field sqrsum 0
field min -nan
field max -nan
attr interpolationmode  none
attr source  messageAge(rcvdPk)
attr title  "end-to-end delay, histogram"
attr unit  s
bin	-INF	0
bin	-0.5	0
bin	-0.46666666666667	0
bin	-0.43333333333333	0
bin	-0.4	0
bin	-0.36666666666667	0
bin	-0.33333333333333	0
bin	-0.3	0
bin	-0.26666666666667	0
bin	-0.23333333333333	0
bin	-0.2	0
bin	-0.16666666666667	0
bin	-0.13333333333333	0
bin	-0.1	0
bin	-0.066666666666667	0
bin	-0.033333333333333	0
bin	0	0
bin	0.033333333333333	0
bin	0.066666666666667	0
bin	0.1	0
bin	0.13333333333333	0
bin	0.16666666666667	0
bin	0.2	0
bin	0.23333333333333	0
bin	0.26666666666667	0
bin	0.3	0
bin	0.33333333333333	0
bin	0.36666666666667	0
bin	0.4	0
bin	0.43333333333333	0
bin	0.46666666666667	0
bin	0.5	0
