version 2
run ExamTaskNetwork_no_CCTV-59-20160819-23:48:39-10442
attr configname ExamTaskNetwork_no_CCTV
attr datetime 20160819-23:48:39
attr experiment ExamTaskNetwork_no_CCTV
attr inifile omnetpp.ini
attr iterationvars "$simtime=1000, $0=15"
attr iterationvars2 "$simtime=1000, $0=15, $repetition=14"
attr measurement "$simtime=1000, $0=15"
attr network ExamTaskNetwork_no_CCTV
attr processid 10442
attr repetition 14
attr replication #14
attr resultdir /utmnt/ut/si/siah1097
attr runnumber 59
attr seedset 59
attr simtime 1000

scalar . 	simtime 	1000
scalar ExamTaskNetwork_no_CCTV.ConferenceLaptop.networkLayer.arp 	initiatedARPResolution:count 	9
attr title  "ARP initiated resolutions, count"
scalar ExamTaskNetwork_no_CCTV.ConferenceLaptop.networkLayer.arp 	sentReply:count 	8
attr title  "ARP replies sent, count"
scalar ExamTaskNetwork_no_CCTV.ConferenceLaptop.networkLayer.arp 	sentReq:count 	10
attr title  "ARP request sent, count"
scalar ExamTaskNetwork_no_CCTV.ConferenceLaptop.networkLayer.arp 	failedARPResolution:count 	0
attr title  "ARP failed resolutions, count"
scalar ExamTaskNetwork_no_CCTV.ConferenceLaptop.networkLayer.arp 	completedARPResolution:count 	48
attr title  "ARP completed resolutions, count"
scalar ExamTaskNetwork_no_CCTV.ConferenceLaptop.lo0.lo 	rcvdPkFromHL:count 	0
attr interpolationmode  none
attr source  packetReceivedFromUpper
attr title  "packets received from higher layer, count"
scalar ExamTaskNetwork_no_CCTV.ConferenceLaptop.lo0.lo 	rcvdPkFromHL:sum(packetBytes) 	0
attr interpolationmode  none
attr source  packetReceivedFromUpper
attr title  "packets received from higher layer, sum(packetBytes)"
scalar ExamTaskNetwork_no_CCTV.ConferenceLaptop.lo0.lo 	passedUpPk:count 	0
attr interpolationmode  none
attr source  packetSentToUpper
attr title  "packets passed to higher layer, count"
scalar ExamTaskNetwork_no_CCTV.ConferenceLaptop.lo0.lo 	passedUpPk:sum(packetBytes) 	0
attr interpolationmode  none
attr source  packetSentToUpper
attr title  "packets passed to higher layer, sum(packetBytes)"
scalar ExamTaskNetwork_no_CCTV.ConferenceLaptop.lo0.lo 	droppedPkBitError:count 	0
attr interpolationmode  none
attr source  dropPkBitError
attr title  "packets dropped/bit error, count"
scalar ExamTaskNetwork_no_CCTV.ConferenceLaptop.lo0.lo 	droppedPkBitError:sum(packetBytes) 	0
attr interpolationmode  none
attr source  dropPkBitError
attr title  "packets dropped/bit error, sum(packetBytes)"
scalar ExamTaskNetwork_no_CCTV.ConferenceLaptop.wlan[0].agent 	dropConfirm:count 	0
attr title  "dropped confirms, count"
scalar ExamTaskNetwork_no_CCTV.ConferenceLaptop.wlan[0].agent 	acceptConfirm:count 	42
attr title  "accepted confirms, count"
scalar ExamTaskNetwork_no_CCTV.ConferenceLaptop.wlan[0].agent 	sentRequest:count 	42
attr title  "sent requests, count"
scalar ExamTaskNetwork_no_CCTV.ConferenceLaptop.wlan[0].mgmt 	dropPkByQueue:count 	0
attr interpolationmode  none
attr source  dropPkByQueue
attr title  "packets dropped by queue, count"
scalar ExamTaskNetwork_no_CCTV.ConferenceLaptop.wlan[0].mgmt 	dropPkByQueue:sum(packetBytes) 	0
attr interpolationmode  none
attr source  dropPkByQueue
attr title  "packets dropped by queue, sum(packetBytes)"
scalar ExamTaskNetwork_no_CCTV.ConferenceLaptop.wlan[0].mgmt 	dataQueueLen:max 	24
attr interpolationmode  sample-hold
attr title  "data queue length, max"
scalar ExamTaskNetwork_no_CCTV.ConferenceLaptop.wlan[0].mgmt 	dataQueueLen:timeavg 	0.0018315684094776
attr interpolationmode  sample-hold
attr title  "data queue length, timeavg"
scalar ExamTaskNetwork_no_CCTV.ConferenceLaptop.wlan[0].mac 	"number of received packets" 	24765
scalar ExamTaskNetwork_no_CCTV.ConferenceLaptop.wlan[0].mac 	"number of collisions" 	45589
scalar ExamTaskNetwork_no_CCTV.ConferenceLaptop.wlan[0].mac 	"number of internal collisions" 	0
scalar ExamTaskNetwork_no_CCTV.ConferenceLaptop.wlan[0].mac 	"number of retry for AC 0" 	8305
scalar ExamTaskNetwork_no_CCTV.ConferenceLaptop.wlan[0].mac 	"sent and received bits" 	291980864
scalar ExamTaskNetwork_no_CCTV.ConferenceLaptop.wlan[0].mac 	"sent packet within AC 0" 	24886
scalar ExamTaskNetwork_no_CCTV.ConferenceLaptop.wlan[0].mac 	"sent in TXOP " 	0
scalar ExamTaskNetwork_no_CCTV.ConferenceLaptop.wlan[0].mac 	"sentWithoutRetry AC 0" 	18776
scalar ExamTaskNetwork_no_CCTV.ConferenceLaptop.wlan[0].mac 	"numGivenUp AC 0" 	4
scalar ExamTaskNetwork_no_CCTV.ConferenceLaptop.wlan[0].mac 	"numDropped AC 0" 	0
scalar ExamTaskNetwork_no_CCTV.ConferenceLaptop.wlan[0].mac 	rcvdPkFromHL:count 	24904
attr interpolationmode  none
attr source  packetReceivedFromUpper
attr title  "packets received from higher layer, count"
scalar ExamTaskNetwork_no_CCTV.ConferenceLaptop.wlan[0].mac 	rcvdPkFromHL:sum(packetBytes) 	36503488
attr interpolationmode  none
attr source  packetReceivedFromUpper
attr title  "packets received from higher layer, sum(packetBytes)"
scalar ExamTaskNetwork_no_CCTV.ConferenceLaptop.wlan[0].mac 	passedUpPk:count 	34143
attr interpolationmode  none
attr source  packetSentToUpper
attr title  "packets passed to higher layer, count"
scalar ExamTaskNetwork_no_CCTV.ConferenceLaptop.wlan[0].mac 	passedUpPk:sum(packetBytes) 	37054826
attr interpolationmode  none
attr source  packetSentToUpper
attr title  "packets passed to higher layer, sum(packetBytes)"
scalar ExamTaskNetwork_no_CCTV.ConferenceLaptop.wlan[0].mac 	rcvdPkFromLL:count 	3507171
attr interpolationmode  none
attr source  packetReceivedFromLower
attr title  "packets received from lower layer, count"
scalar ExamTaskNetwork_no_CCTV.ConferenceLaptop.wlan[0].mac 	rcvdPkFromLL:sum(packetBytes) 	1344945576
attr interpolationmode  none
attr source  packetReceivedFromLower
attr title  "packets received from lower layer, sum(packetBytes)"
scalar ExamTaskNetwork_no_CCTV.ConferenceLaptop.wlan[0].mac 	sentDownPk:count 	57974
attr interpolationmode  none
attr source  packetSentToLower
attr title  "packets sent to lower layer, count"
scalar ExamTaskNetwork_no_CCTV.ConferenceLaptop.wlan[0].mac 	sentDownPk:sum(packetBytes) 	49005524
attr interpolationmode  none
attr source  packetSentToLower
attr title  "packets sent to lower layer, sum(packetBytes)"
scalar ExamTaskNetwork_no_CCTV.ConferenceLaptop.wlan[0].radio 	lossRate:min 	0
attr interpolationmode  backward-sample-hold
attr title  "packet loss rate, min"
scalar ExamTaskNetwork_no_CCTV.ConferenceLaptop.wlan[0].radio 	lossRate:max 	0.18
attr interpolationmode  backward-sample-hold
attr title  "packet loss rate, max"
scalar ExamTaskNetwork_no_CCTV.ConferenceLaptop.wlan[0].radio 	lossRate:timeavg 	0.012421701796666
attr interpolationmode  backward-sample-hold
attr title  "packet loss rate, timeavg"
statistic ExamTaskNetwork_no_CCTV.ConferenceLaptop.wlan[0].radio 	channelNo:histogram
field count 1
field mean 0
field stddev -nan
field sum 0
field sqrsum 0
field min 0
field max 0
attr interpolationmode  sample-hold
attr title  "channel no, histogram"
bin	-INF	0
bin	-0.5	0
bin	-0.46666666666667	0
bin	-0.43333333333333	0
bin	-0.4	0
bin	-0.36666666666667	0
bin	-0.33333333333333	0
bin	-0.3	0
bin	-0.26666666666667	0
bin	-0.23333333333333	0
bin	-0.2	0
bin	-0.16666666666667	0
bin	-0.13333333333333	0
bin	-0.1	0
bin	-0.066666666666667	0
bin	-0.033333333333333	0
bin	0	1
bin	0.033333333333333	0
bin	0.066666666666667	0
bin	0.1	0
bin	0.13333333333333	0
bin	0.16666666666667	0
bin	0.2	0
bin	0.23333333333333	0
bin	0.26666666666667	0
bin	0.3	0
bin	0.33333333333333	0
bin	0.36666666666667	0
bin	0.4	0
bin	0.43333333333333	0
bin	0.46666666666667	0
bin	0.5	0
scalar ExamTaskNetwork_no_CCTV.ConferenceLaptop.wlan[0].radio 	radioState:count 	7139354
attr interpolationmode  sample-hold
attr title  "radio state (enum), count"
scalar ExamTaskNetwork_no_CCTV.ConferenceLaptop.wlan[0].radio 	bitrate:min 	54000000
attr interpolationmode  sample-hold
attr title  "tx bitrate, min"
attr unit  bps
scalar ExamTaskNetwork_no_CCTV.ConferenceLaptop.wlan[0].radio 	bitrate:max 	54000000
attr interpolationmode  sample-hold
attr title  "tx bitrate, max"
attr unit  bps
scalar ExamTaskNetwork_no_CCTV.ConferenceLaptop.wlan[0].radio 	bitrate:timeavg 	54000000
attr interpolationmode  sample-hold
attr title  "tx bitrate, timeavg"
attr unit  bps
scalar ExamTaskNetwork_no_CCTV.ConferenceLaptop.udpApp[0] 	"packets sent" 	24963
scalar ExamTaskNetwork_no_CCTV.ConferenceLaptop.udpApp[0] 	"packets received" 	24568
scalar ExamTaskNetwork_no_CCTV.ConferenceLaptop.udpApp[0] 	lateRatio 	0
scalar ExamTaskNetwork_no_CCTV.ConferenceLaptop.udpApp[0] 	"discarded packets" 	0
statistic ExamTaskNetwork_no_CCTV.ConferenceLaptop.udpApp[0] 	endToEndDelay:stats
field count 24568
field mean 0.038586225103703
field stddev 0.017354659314569
field sum 947.98637834779
field sqrsum 43.978408029723
field min 0.01644783479
field max 0.096706721535
attr source  VoIPPacketDelay
attr title  "VoIP Packet End-to-End Delay, stats"
attr unit  s
scalar ExamTaskNetwork_no_CCTV.ConferenceLaptop.udpApp[0] 	sentPk:count 	24963
attr interpolationmode  none
attr source  sentPk
attr title  "packets sent, count"
scalar ExamTaskNetwork_no_CCTV.ConferenceLaptop.udpApp[0] 	sentPk:sum(packetBytes) 	34948200
attr interpolationmode  none
attr source  sentPk
attr title  "packets sent, sum(packetBytes)"
scalar ExamTaskNetwork_no_CCTV.ConferenceLaptop.udpApp[0] 	rcvdPk:count 	24568
attr interpolationmode  none
attr source  rcvdPk
attr title  "packets received, count"
scalar ExamTaskNetwork_no_CCTV.ConferenceLaptop.udpApp[0] 	rcvdPk:sum(packetBytes) 	34395200
attr interpolationmode  none
attr source  rcvdPk
attr title  "packets received, sum(packetBytes)"
statistic ExamTaskNetwork_no_CCTV.ConferenceLaptop.udpApp[0] 	rcvdPkLifetime:stats
field count 24568
field mean 0.038586225103703
field stddev 0.017354659314569
field sum 947.98637834779
field sqrsum 43.978408029723
field min 0.01644783479
field max 0.096706721535
attr interpolationmode  none
attr source  messageAge(rcvdPk)
attr title  "received packet lifetime, stats"
attr unit  s
scalar ExamTaskNetwork_no_CCTV.ConferenceLaptop.udp 	droppedPkBadChecksum:count 	0
attr interpolationmode  none
attr title  "packets dropped (checksum error), count"
scalar ExamTaskNetwork_no_CCTV.ConferenceLaptop.udp 	droppedPkWrongPort:count 	0
attr interpolationmode  none
attr title  "packets dropped (wrong port), count"
scalar ExamTaskNetwork_no_CCTV.ConferenceLaptop.udp 	passedUpPk:count 	24568
attr interpolationmode  none
attr title  "packets passed up, count"
scalar ExamTaskNetwork_no_CCTV.ConferenceLaptop.udp 	sentPk:count 	24963
attr interpolationmode  none
attr source  sentPk
attr title  "packets sent, count"
scalar ExamTaskNetwork_no_CCTV.ConferenceLaptop.udp 	sentPk:sum(packetBytes) 	35147904
attr interpolationmode  none
attr source  sentPk
attr title  "packets sent, sum(packetBytes)"
scalar ExamTaskNetwork_no_CCTV.ConferenceLaptop.udp 	rcvdPk:count 	24568
attr interpolationmode  none
attr source  rcvdPk
attr title  "packets received, count"
scalar ExamTaskNetwork_no_CCTV.ConferenceLaptop.udp 	rcvdPk:sum(packetBytes) 	34591744
attr interpolationmode  none
attr source  rcvdPk
attr title  "packets received, sum(packetBytes)"
scalar ExamTaskNetwork_no_CCTV.FTPLaptop.networkLayer.arp 	initiatedARPResolution:count 	9
attr title  "ARP initiated resolutions, count"
scalar ExamTaskNetwork_no_CCTV.FTPLaptop.networkLayer.arp 	sentReply:count 	6
attr title  "ARP replies sent, count"
scalar ExamTaskNetwork_no_CCTV.FTPLaptop.networkLayer.arp 	sentReq:count 	10
attr title  "ARP request sent, count"
scalar ExamTaskNetwork_no_CCTV.FTPLaptop.networkLayer.arp 	failedARPResolution:count 	0
attr title  "ARP failed resolutions, count"
scalar ExamTaskNetwork_no_CCTV.FTPLaptop.networkLayer.arp 	completedARPResolution:count 	49
attr title  "ARP completed resolutions, count"
scalar ExamTaskNetwork_no_CCTV.FTPLaptop.lo0.lo 	rcvdPkFromHL:count 	0
attr interpolationmode  none
attr source  packetReceivedFromUpper
attr title  "packets received from higher layer, count"
scalar ExamTaskNetwork_no_CCTV.FTPLaptop.lo0.lo 	rcvdPkFromHL:sum(packetBytes) 	0
attr interpolationmode  none
attr source  packetReceivedFromUpper
attr title  "packets received from higher layer, sum(packetBytes)"
scalar ExamTaskNetwork_no_CCTV.FTPLaptop.lo0.lo 	passedUpPk:count 	0
attr interpolationmode  none
attr source  packetSentToUpper
attr title  "packets passed to higher layer, count"
scalar ExamTaskNetwork_no_CCTV.FTPLaptop.lo0.lo 	passedUpPk:sum(packetBytes) 	0
attr interpolationmode  none
attr source  packetSentToUpper
attr title  "packets passed to higher layer, sum(packetBytes)"
scalar ExamTaskNetwork_no_CCTV.FTPLaptop.lo0.lo 	droppedPkBitError:count 	0
attr interpolationmode  none
attr source  dropPkBitError
attr title  "packets dropped/bit error, count"
scalar ExamTaskNetwork_no_CCTV.FTPLaptop.lo0.lo 	droppedPkBitError:sum(packetBytes) 	0
attr interpolationmode  none
attr source  dropPkBitError
attr title  "packets dropped/bit error, sum(packetBytes)"
scalar ExamTaskNetwork_no_CCTV.FTPLaptop.wlan[0].agent 	dropConfirm:count 	0
attr title  "dropped confirms, count"
scalar ExamTaskNetwork_no_CCTV.FTPLaptop.wlan[0].agent 	acceptConfirm:count 	42
attr title  "accepted confirms, count"
scalar ExamTaskNetwork_no_CCTV.FTPLaptop.wlan[0].agent 	sentRequest:count 	42
attr title  "sent requests, count"
scalar ExamTaskNetwork_no_CCTV.FTPLaptop.wlan[0].mgmt 	dropPkByQueue:count 	1218
attr interpolationmode  none
attr source  dropPkByQueue
attr title  "packets dropped by queue, count"
scalar ExamTaskNetwork_no_CCTV.FTPLaptop.wlan[0].mgmt 	dropPkByQueue:sum(packetBytes) 	1885464
attr interpolationmode  none
attr source  dropPkByQueue
attr title  "packets dropped by queue, sum(packetBytes)"
scalar ExamTaskNetwork_no_CCTV.FTPLaptop.wlan[0].mgmt 	dataQueueLen:max 	50
attr interpolationmode  sample-hold
attr title  "data queue length, max"
scalar ExamTaskNetwork_no_CCTV.FTPLaptop.wlan[0].mgmt 	dataQueueLen:timeavg 	5.3735771376259
attr interpolationmode  sample-hold
attr title  "data queue length, timeavg"
scalar ExamTaskNetwork_no_CCTV.FTPLaptop.wlan[0].mac 	"number of received packets" 	455722
scalar ExamTaskNetwork_no_CCTV.FTPLaptop.wlan[0].mac 	"number of collisions" 	4278
scalar ExamTaskNetwork_no_CCTV.FTPLaptop.wlan[0].mac 	"number of internal collisions" 	0
scalar ExamTaskNetwork_no_CCTV.FTPLaptop.wlan[0].mac 	"number of retry for AC 0" 	86406
scalar ExamTaskNetwork_no_CCTV.FTPLaptop.wlan[0].mac 	"sent and received bits" 	5787363472
scalar ExamTaskNetwork_no_CCTV.FTPLaptop.wlan[0].mac 	"sent packet within AC 0" 	467455
scalar ExamTaskNetwork_no_CCTV.FTPLaptop.wlan[0].mac 	"sent in TXOP " 	0
scalar ExamTaskNetwork_no_CCTV.FTPLaptop.wlan[0].mac 	"sentWithoutRetry AC 0" 	397982
scalar ExamTaskNetwork_no_CCTV.FTPLaptop.wlan[0].mac 	"numGivenUp AC 0" 	2
scalar ExamTaskNetwork_no_CCTV.FTPLaptop.wlan[0].mac 	"numDropped AC 0" 	0
scalar ExamTaskNetwork_no_CCTV.FTPLaptop.wlan[0].mac 	rcvdPkFromHL:count 	467473
attr interpolationmode  none
attr source  packetReceivedFromUpper
attr title  "packets received from higher layer, count"
scalar ExamTaskNetwork_no_CCTV.FTPLaptop.wlan[0].mac 	rcvdPkFromHL:sum(packetBytes) 	723426626
attr interpolationmode  none
attr source  packetReceivedFromUpper
attr title  "packets received from higher layer, sum(packetBytes)"
scalar ExamTaskNetwork_no_CCTV.FTPLaptop.wlan[0].mac 	passedUpPk:count 	465099
attr interpolationmode  none
attr source  packetSentToUpper
attr title  "packets passed to higher layer, count"
scalar ExamTaskNetwork_no_CCTV.FTPLaptop.wlan[0].mac 	passedUpPk:sum(packetBytes) 	38094408
attr interpolationmode  none
attr source  packetSentToUpper
attr title  "packets passed to higher layer, sum(packetBytes)"
scalar ExamTaskNetwork_no_CCTV.FTPLaptop.wlan[0].mac 	rcvdPkFromLL:count 	2555546
attr interpolationmode  none
attr source  packetReceivedFromLower
attr title  "packets received from lower layer, count"
scalar ExamTaskNetwork_no_CCTV.FTPLaptop.wlan[0].mac 	rcvdPkFromLL:sum(packetBytes) 	573320940
attr interpolationmode  none
attr source  packetReceivedFromLower
attr title  "packets received from lower layer, sum(packetBytes)"
scalar ExamTaskNetwork_no_CCTV.FTPLaptop.wlan[0].mac 	sentDownPk:count 	1009599
attr interpolationmode  none
attr source  packetSentToLower
attr title  "packets sent to lower layer, count"
scalar ExamTaskNetwork_no_CCTV.FTPLaptop.wlan[0].mac 	sentDownPk:sum(packetBytes) 	863497447
attr interpolationmode  none
attr source  packetSentToLower
attr title  "packets sent to lower layer, sum(packetBytes)"
scalar ExamTaskNetwork_no_CCTV.FTPLaptop.wlan[0].radio 	lossRate:min 	0
attr interpolationmode  backward-sample-hold
attr title  "packet loss rate, min"
scalar ExamTaskNetwork_no_CCTV.FTPLaptop.wlan[0].radio 	lossRate:max 	0.2
attr interpolationmode  backward-sample-hold
attr title  "packet loss rate, max"
scalar ExamTaskNetwork_no_CCTV.FTPLaptop.wlan[0].radio 	lossRate:timeavg 	0.0016006231895937
attr interpolationmode  backward-sample-hold
attr title  "packet loss rate, timeavg"
statistic ExamTaskNetwork_no_CCTV.FTPLaptop.wlan[0].radio 	channelNo:histogram
field count 1
field mean 0
field stddev -nan
field sum 0
field sqrsum 0
field min 0
field max 0
attr interpolationmode  sample-hold
attr title  "channel no, histogram"
bin	-INF	0
bin	-0.5	0
bin	-0.46666666666667	0
bin	-0.43333333333333	0
bin	-0.4	0
bin	-0.36666666666667	0
bin	-0.33333333333333	0
bin	-0.3	0
bin	-0.26666666666667	0
bin	-0.23333333333333	0
bin	-0.2	0
bin	-0.16666666666667	0
bin	-0.13333333333333	0
bin	-0.1	0
bin	-0.066666666666667	0
bin	-0.033333333333333	0
bin	0	1
bin	0.033333333333333	0
bin	0.066666666666667	0
bin	0.1	0
bin	0.13333333333333	0
bin	0.16666666666667	0
bin	0.2	0
bin	0.23333333333333	0
bin	0.26666666666667	0
bin	0.3	0
bin	0.33333333333333	0
bin	0.36666666666667	0
bin	0.4	0
bin	0.43333333333333	0
bin	0.46666666666667	0
bin	0.5	0
scalar ExamTaskNetwork_no_CCTV.FTPLaptop.wlan[0].radio 	radioState:count 	7181823
attr interpolationmode  sample-hold
attr title  "radio state (enum), count"
scalar ExamTaskNetwork_no_CCTV.FTPLaptop.wlan[0].radio 	bitrate:min 	54000000
attr interpolationmode  sample-hold
attr title  "tx bitrate, min"
attr unit  bps
scalar ExamTaskNetwork_no_CCTV.FTPLaptop.wlan[0].radio 	bitrate:max 	54000000
attr interpolationmode  sample-hold
attr title  "tx bitrate, max"
attr unit  bps
scalar ExamTaskNetwork_no_CCTV.FTPLaptop.wlan[0].radio 	bitrate:timeavg 	54000000
attr interpolationmode  sample-hold
attr title  "tx bitrate, timeavg"
attr unit  bps
scalar ExamTaskNetwork_no_CCTV.FTPLaptop.tcpApp[0] 	bytesRcvd 	0
scalar ExamTaskNetwork_no_CCTV.FTPLaptop.tcpApp[0] 	bytesSent 	1778384896
scalar ExamTaskNetwork_no_CCTV.FTPLaptop.tcpApp[0] 	sentPk:count 	1
attr interpolationmode  none
attr source  sentPk
attr title  "packets sent, count"
scalar ExamTaskNetwork_no_CCTV.FTPLaptop.tcpApp[0] 	sentPk:sum(packetBytes) 	1778384896
attr interpolationmode  none
attr source  sentPk
attr title  "packets sent, sum(packetBytes)"
scalar ExamTaskNetwork_no_CCTV.FTPLaptop.tcpApp[0] 	rcvdPk:count 	0
attr interpolationmode  none
attr source  rcvdPk
attr title  "packets received, count"
scalar ExamTaskNetwork_no_CCTV.FTPLaptop.tcpApp[0] 	rcvdPk:sum(packetBytes) 	0
attr interpolationmode  none
attr source  rcvdPk
attr title  "packets received, sum(packetBytes)"
statistic ExamTaskNetwork_no_CCTV.FTPLaptop.tcpApp[0] 	endToEndDelay:histogram
field count 0
field mean -nan
field stddev -nan
field sum 0
field sqrsum 0
field min -nan
field max -nan
attr interpolationmode  none
attr source  messageAge(rcvdPk)
attr title  "end-to-end delay, histogram"
attr unit  s
bin	-INF	0
bin	-0.5	0
bin	-0.46666666666667	0
bin	-0.43333333333333	0
bin	-0.4	0
bin	-0.36666666666667	0
bin	-0.33333333333333	0
bin	-0.3	0
bin	-0.26666666666667	0
bin	-0.23333333333333	0
bin	-0.2	0
bin	-0.16666666666667	0
bin	-0.13333333333333	0
bin	-0.1	0
bin	-0.066666666666667	0
bin	-0.033333333333333	0
bin	0	0
bin	0.033333333333333	0
bin	0.066666666666667	0
bin	0.1	0
bin	0.13333333333333	0
bin	0.16666666666667	0
bin	0.2	0
bin	0.23333333333333	0
bin	0.26666666666667	0
bin	0.3	0
bin	0.33333333333333	0
bin	0.36666666666667	0
bin	0.4	0
bin	0.43333333333333	0
bin	0.46666666666667	0
bin	0.5	0
scalar ExamTaskNetwork_no_CCTV.BrowsingLaptop[0].networkLayer.arp 	initiatedARPResolution:count 	8
attr title  "ARP initiated resolutions, count"
scalar ExamTaskNetwork_no_CCTV.BrowsingLaptop[0].networkLayer.arp 	sentReply:count 	4
attr title  "ARP replies sent, count"
scalar ExamTaskNetwork_no_CCTV.BrowsingLaptop[0].networkLayer.arp 	sentReq:count 	9
attr title  "ARP request sent, count"
scalar ExamTaskNetwork_no_CCTV.BrowsingLaptop[0].networkLayer.arp 	failedARPResolution:count 	0
attr title  "ARP failed resolutions, count"
scalar ExamTaskNetwork_no_CCTV.BrowsingLaptop[0].networkLayer.arp 	completedARPResolution:count 	49
attr title  "ARP completed resolutions, count"
scalar ExamTaskNetwork_no_CCTV.BrowsingLaptop[0].lo0.lo 	rcvdPkFromHL:count 	0
attr interpolationmode  none
attr source  packetReceivedFromUpper
attr title  "packets received from higher layer, count"
scalar ExamTaskNetwork_no_CCTV.BrowsingLaptop[0].lo0.lo 	rcvdPkFromHL:sum(packetBytes) 	0
attr interpolationmode  none
attr source  packetReceivedFromUpper
attr title  "packets received from higher layer, sum(packetBytes)"
scalar ExamTaskNetwork_no_CCTV.BrowsingLaptop[0].lo0.lo 	passedUpPk:count 	0
attr interpolationmode  none
attr source  packetSentToUpper
attr title  "packets passed to higher layer, count"
scalar ExamTaskNetwork_no_CCTV.BrowsingLaptop[0].lo0.lo 	passedUpPk:sum(packetBytes) 	0
attr interpolationmode  none
attr source  packetSentToUpper
attr title  "packets passed to higher layer, sum(packetBytes)"
scalar ExamTaskNetwork_no_CCTV.BrowsingLaptop[0].lo0.lo 	droppedPkBitError:count 	0
attr interpolationmode  none
attr source  dropPkBitError
attr title  "packets dropped/bit error, count"
scalar ExamTaskNetwork_no_CCTV.BrowsingLaptop[0].lo0.lo 	droppedPkBitError:sum(packetBytes) 	0
attr interpolationmode  none
attr source  dropPkBitError
attr title  "packets dropped/bit error, sum(packetBytes)"
scalar ExamTaskNetwork_no_CCTV.BrowsingLaptop[0].wlan[0].agent 	dropConfirm:count 	0
attr title  "dropped confirms, count"
scalar ExamTaskNetwork_no_CCTV.BrowsingLaptop[0].wlan[0].agent 	acceptConfirm:count 	42
attr title  "accepted confirms, count"
scalar ExamTaskNetwork_no_CCTV.BrowsingLaptop[0].wlan[0].agent 	sentRequest:count 	42
attr title  "sent requests, count"
scalar ExamTaskNetwork_no_CCTV.BrowsingLaptop[0].wlan[0].mgmt 	dropPkByQueue:count 	0
attr interpolationmode  none
attr source  dropPkByQueue
attr title  "packets dropped by queue, count"
scalar ExamTaskNetwork_no_CCTV.BrowsingLaptop[0].wlan[0].mgmt 	dropPkByQueue:sum(packetBytes) 	0
attr interpolationmode  none
attr source  dropPkByQueue
attr title  "packets dropped by queue, sum(packetBytes)"
scalar ExamTaskNetwork_no_CCTV.BrowsingLaptop[0].wlan[0].mgmt 	dataQueueLen:max 	5
attr interpolationmode  sample-hold
attr title  "data queue length, max"
scalar ExamTaskNetwork_no_CCTV.BrowsingLaptop[0].wlan[0].mgmt 	dataQueueLen:timeavg 	2.1948061411787e-05
attr interpolationmode  sample-hold
attr title  "data queue length, timeavg"
scalar ExamTaskNetwork_no_CCTV.BrowsingLaptop[0].wlan[0].mac 	"number of received packets" 	37193
scalar ExamTaskNetwork_no_CCTV.BrowsingLaptop[0].wlan[0].mac 	"number of collisions" 	51635
scalar ExamTaskNetwork_no_CCTV.BrowsingLaptop[0].wlan[0].mac 	"number of internal collisions" 	0
scalar ExamTaskNetwork_no_CCTV.BrowsingLaptop[0].wlan[0].mac 	"number of retry for AC 0" 	121
scalar ExamTaskNetwork_no_CCTV.BrowsingLaptop[0].wlan[0].mac 	"sent and received bits" 	14208320
scalar ExamTaskNetwork_no_CCTV.BrowsingLaptop[0].wlan[0].mac 	"sent packet within AC 0" 	18359
scalar ExamTaskNetwork_no_CCTV.BrowsingLaptop[0].wlan[0].mac 	"sent in TXOP " 	0
scalar ExamTaskNetwork_no_CCTV.BrowsingLaptop[0].wlan[0].mac 	"sentWithoutRetry AC 0" 	18277
scalar ExamTaskNetwork_no_CCTV.BrowsingLaptop[0].wlan[0].mac 	"numGivenUp AC 0" 	0
scalar ExamTaskNetwork_no_CCTV.BrowsingLaptop[0].wlan[0].mac 	"numDropped AC 0" 	0
scalar ExamTaskNetwork_no_CCTV.BrowsingLaptop[0].wlan[0].mac 	rcvdPkFromHL:count 	18373
attr interpolationmode  none
attr source  packetReceivedFromUpper
attr title  "packets received from higher layer, count"
scalar ExamTaskNetwork_no_CCTV.BrowsingLaptop[0].wlan[0].mac 	rcvdPkFromHL:sum(packetBytes) 	1776040
attr interpolationmode  none
attr source  packetReceivedFromUpper
attr title  "packets received from higher layer, sum(packetBytes)"
scalar ExamTaskNetwork_no_CCTV.BrowsingLaptop[0].wlan[0].mac 	passedUpPk:count 	46573
attr interpolationmode  none
attr source  packetSentToUpper
attr title  "packets passed to higher layer, count"
scalar ExamTaskNetwork_no_CCTV.BrowsingLaptop[0].wlan[0].mac 	passedUpPk:sum(packetBytes) 	31213627
attr interpolationmode  none
attr source  packetSentToUpper
attr title  "packets passed to higher layer, sum(packetBytes)"
scalar ExamTaskNetwork_no_CCTV.BrowsingLaptop[0].wlan[0].mac 	rcvdPkFromLL:count 	3509458
attr interpolationmode  none
attr source  packetReceivedFromLower
attr title  "packets received from lower layer, count"
scalar ExamTaskNetwork_no_CCTV.BrowsingLaptop[0].wlan[0].mac 	rcvdPkFromLL:sum(packetBytes) 	1388908200
attr interpolationmode  none
attr source  packetReceivedFromLower
attr title  "packets received from lower layer, sum(packetBytes)"
scalar ExamTaskNetwork_no_CCTV.BrowsingLaptop[0].wlan[0].mac 	sentDownPk:count 	55687
attr interpolationmode  none
attr source  packetSentToLower
attr title  "packets sent to lower layer, count"
scalar ExamTaskNetwork_no_CCTV.BrowsingLaptop[0].wlan[0].mac 	sentDownPk:sum(packetBytes) 	2370926
attr interpolationmode  none
attr source  packetSentToLower
attr title  "packets sent to lower layer, sum(packetBytes)"
scalar ExamTaskNetwork_no_CCTV.BrowsingLaptop[0].wlan[0].radio 	lossRate:min 	0
attr interpolationmode  backward-sample-hold
attr title  "packet loss rate, min"
scalar ExamTaskNetwork_no_CCTV.BrowsingLaptop[0].wlan[0].radio 	lossRate:max 	0.2
attr interpolationmode  backward-sample-hold
attr title  "packet loss rate, max"
scalar ExamTaskNetwork_no_CCTV.BrowsingLaptop[0].wlan[0].radio 	lossRate:timeavg 	0.014073969285324
attr interpolationmode  backward-sample-hold
attr title  "packet loss rate, timeavg"
statistic ExamTaskNetwork_no_CCTV.BrowsingLaptop[0].wlan[0].radio 	channelNo:histogram
field count 1
field mean 0
field stddev -nan
field sum 0
field sqrsum 0
field min 0
field max 0
attr interpolationmode  sample-hold
attr title  "channel no, histogram"
bin	-INF	0
bin	-0.5	0
bin	-0.46666666666667	0
bin	-0.43333333333333	0
bin	-0.4	0
bin	-0.36666666666667	0
bin	-0.33333333333333	0
bin	-0.3	0
bin	-0.26666666666667	0
bin	-0.23333333333333	0
bin	-0.2	0
bin	-0.16666666666667	0
bin	-0.13333333333333	0
bin	-0.1	0
bin	-0.066666666666667	0
bin	-0.033333333333333	0
bin	0	1
bin	0.033333333333333	0
bin	0.066666666666667	0
bin	0.1	0
bin	0.13333333333333	0
bin	0.16666666666667	0
bin	0.2	0
bin	0.23333333333333	0
bin	0.26666666666667	0
bin	0.3	0
bin	0.33333333333333	0
bin	0.36666666666667	0
bin	0.4	0
bin	0.43333333333333	0
bin	0.46666666666667	0
bin	0.5	0
scalar ExamTaskNetwork_no_CCTV.BrowsingLaptop[0].wlan[0].radio 	radioState:count 	7130431
attr interpolationmode  sample-hold
attr title  "radio state (enum), count"
scalar ExamTaskNetwork_no_CCTV.BrowsingLaptop[0].wlan[0].radio 	bitrate:min 	54000000
attr interpolationmode  sample-hold
attr title  "tx bitrate, min"
attr unit  bps
scalar ExamTaskNetwork_no_CCTV.BrowsingLaptop[0].wlan[0].radio 	bitrate:max 	54000000
attr interpolationmode  sample-hold
attr title  "tx bitrate, max"
attr unit  bps
scalar ExamTaskNetwork_no_CCTV.BrowsingLaptop[0].wlan[0].radio 	bitrate:timeavg 	54000000
attr interpolationmode  sample-hold
attr title  "tx bitrate, timeavg"
attr unit  bps
scalar ExamTaskNetwork_no_CCTV.BrowsingLaptop[0].tcpApp[0] 	numActiveSessions:max 	1
attr interpolationmode  sample-hold
attr source  sum(connect)
attr title  "number of active sessions, max"
scalar ExamTaskNetwork_no_CCTV.BrowsingLaptop[0].tcpApp[0] 	numActiveSessions:timeavg 	0.42409667160938
attr interpolationmode  sample-hold
attr source  sum(connect)
attr title  "number of active sessions, timeavg"
scalar ExamTaskNetwork_no_CCTV.BrowsingLaptop[0].tcpApp[0] 	numSessions:last 	33
attr source  sum(connect+1)/2
attr title  "total number of sessions, last"
scalar ExamTaskNetwork_no_CCTV.BrowsingLaptop[0].tcpApp[0] 	sentPk:count 	33
attr interpolationmode  none
attr source  sentPk
attr title  "packets sent, count"
scalar ExamTaskNetwork_no_CCTV.BrowsingLaptop[0].tcpApp[0] 	sentPk:sum(packetBytes) 	270336
attr interpolationmode  none
attr source  sentPk
attr title  "packets sent, sum(packetBytes)"
scalar ExamTaskNetwork_no_CCTV.BrowsingLaptop[0].tcpApp[0] 	rcvdPk:count 	32
attr interpolationmode  none
attr source  rcvdPk
attr title  "packets received, count"
scalar ExamTaskNetwork_no_CCTV.BrowsingLaptop[0].tcpApp[0] 	rcvdPk:sum(packetBytes) 	25181189
attr interpolationmode  none
attr source  rcvdPk
attr title  "packets received, sum(packetBytes)"
statistic ExamTaskNetwork_no_CCTV.BrowsingLaptop[0].tcpApp[0] 	endToEndDelay:histogram
field count 32
field mean 12.613337857017
field stddev 9.7035370760845
field sum 403.62681142456
field sqrsum 8009.9989260439
field min 0.514120236961
field max 37.214794694071
attr interpolationmode  none
attr source  messageAge(rcvdPk)
attr title  "end-to-end delay, histogram"
attr unit  s
bin	-INF	0
bin	-17.836216991594	0
bin	-15.38950536112	0
bin	-12.942793730646	0
bin	-10.496082100172	0
bin	-8.049370469698	0
bin	-5.602658839224	0
bin	-3.15594720875	0
bin	-0.709235578276	1
bin	1.737476052198	5
bin	4.184187682672	4
bin	6.630899313146	5
bin	9.07761094362	3
bin	11.524322574094	4
bin	13.971034204568	2
bin	16.417745835042	2
bin	18.864457465516	1
bin	21.31116909599	0
bin	23.757880726464	0
bin	26.204592356938	2
bin	28.651303987412	0
bin	31.098015617886	2
bin	33.54472724836	0
bin	35.991438878834	1
bin	38.438150509308	0
bin	40.884862139782	0
bin	43.331573770256	0
bin	45.77828540073	0
bin	48.224997031204	0
bin	50.671708661678	0
bin	53.118420292152	0
bin	55.565131922626	0
scalar ExamTaskNetwork_no_CCTV.BrowsingLaptop[1].networkLayer.arp 	initiatedARPResolution:count 	7
attr title  "ARP initiated resolutions, count"
scalar ExamTaskNetwork_no_CCTV.BrowsingLaptop[1].networkLayer.arp 	sentReply:count 	3
attr title  "ARP replies sent, count"
scalar ExamTaskNetwork_no_CCTV.BrowsingLaptop[1].networkLayer.arp 	sentReq:count 	7
attr title  "ARP request sent, count"
scalar ExamTaskNetwork_no_CCTV.BrowsingLaptop[1].networkLayer.arp 	failedARPResolution:count 	0
attr title  "ARP failed resolutions, count"
scalar ExamTaskNetwork_no_CCTV.BrowsingLaptop[1].networkLayer.arp 	completedARPResolution:count 	51
attr title  "ARP completed resolutions, count"
scalar ExamTaskNetwork_no_CCTV.BrowsingLaptop[1].lo0.lo 	rcvdPkFromHL:count 	0
attr interpolationmode  none
attr source  packetReceivedFromUpper
attr title  "packets received from higher layer, count"
scalar ExamTaskNetwork_no_CCTV.BrowsingLaptop[1].lo0.lo 	rcvdPkFromHL:sum(packetBytes) 	0
attr interpolationmode  none
attr source  packetReceivedFromUpper
attr title  "packets received from higher layer, sum(packetBytes)"
scalar ExamTaskNetwork_no_CCTV.BrowsingLaptop[1].lo0.lo 	passedUpPk:count 	0
attr interpolationmode  none
attr source  packetSentToUpper
attr title  "packets passed to higher layer, count"
scalar ExamTaskNetwork_no_CCTV.BrowsingLaptop[1].lo0.lo 	passedUpPk:sum(packetBytes) 	0
attr interpolationmode  none
attr source  packetSentToUpper
attr title  "packets passed to higher layer, sum(packetBytes)"
scalar ExamTaskNetwork_no_CCTV.BrowsingLaptop[1].lo0.lo 	droppedPkBitError:count 	0
attr interpolationmode  none
attr source  dropPkBitError
attr title  "packets dropped/bit error, count"
scalar ExamTaskNetwork_no_CCTV.BrowsingLaptop[1].lo0.lo 	droppedPkBitError:sum(packetBytes) 	0
attr interpolationmode  none
attr source  dropPkBitError
attr title  "packets dropped/bit error, sum(packetBytes)"
scalar ExamTaskNetwork_no_CCTV.BrowsingLaptop[1].wlan[0].agent 	dropConfirm:count 	0
attr title  "dropped confirms, count"
scalar ExamTaskNetwork_no_CCTV.BrowsingLaptop[1].wlan[0].agent 	acceptConfirm:count 	42
attr title  "accepted confirms, count"
scalar ExamTaskNetwork_no_CCTV.BrowsingLaptop[1].wlan[0].agent 	sentRequest:count 	42
attr title  "sent requests, count"
scalar ExamTaskNetwork_no_CCTV.BrowsingLaptop[1].wlan[0].mgmt 	dropPkByQueue:count 	316
attr interpolationmode  none
attr source  dropPkByQueue
attr title  "packets dropped by queue, count"
scalar ExamTaskNetwork_no_CCTV.BrowsingLaptop[1].wlan[0].mgmt 	dropPkByQueue:sum(packetBytes) 	30920
attr interpolationmode  none
attr source  dropPkByQueue
attr title  "packets dropped by queue, sum(packetBytes)"
scalar ExamTaskNetwork_no_CCTV.BrowsingLaptop[1].wlan[0].mgmt 	dataQueueLen:max 	50
attr interpolationmode  sample-hold
attr title  "data queue length, max"
scalar ExamTaskNetwork_no_CCTV.BrowsingLaptop[1].wlan[0].mgmt 	dataQueueLen:timeavg 	0.015130006687852
attr interpolationmode  sample-hold
attr title  "data queue length, timeavg"
scalar ExamTaskNetwork_no_CCTV.BrowsingLaptop[1].wlan[0].mac 	"number of received packets" 	36784
scalar ExamTaskNetwork_no_CCTV.BrowsingLaptop[1].wlan[0].mac 	"number of collisions" 	51509
scalar ExamTaskNetwork_no_CCTV.BrowsingLaptop[1].wlan[0].mac 	"number of internal collisions" 	0
scalar ExamTaskNetwork_no_CCTV.BrowsingLaptop[1].wlan[0].mac 	"number of retry for AC 0" 	280
scalar ExamTaskNetwork_no_CCTV.BrowsingLaptop[1].wlan[0].mac 	"sent and received bits" 	14438528
scalar ExamTaskNetwork_no_CCTV.BrowsingLaptop[1].wlan[0].mac 	"sent packet within AC 0" 	18860
scalar ExamTaskNetwork_no_CCTV.BrowsingLaptop[1].wlan[0].mac 	"sent in TXOP " 	0
scalar ExamTaskNetwork_no_CCTV.BrowsingLaptop[1].wlan[0].mac 	"sentWithoutRetry AC 0" 	18634
scalar ExamTaskNetwork_no_CCTV.BrowsingLaptop[1].wlan[0].mac 	"numGivenUp AC 0" 	0
scalar ExamTaskNetwork_no_CCTV.BrowsingLaptop[1].wlan[0].mac 	"numDropped AC 0" 	0
scalar ExamTaskNetwork_no_CCTV.BrowsingLaptop[1].wlan[0].mac 	rcvdPkFromHL:count 	18874
attr interpolationmode  none
attr source  packetReceivedFromUpper
attr title  "packets received from higher layer, count"
scalar ExamTaskNetwork_no_CCTV.BrowsingLaptop[1].wlan[0].mac 	rcvdPkFromHL:sum(packetBytes) 	1804816
attr interpolationmode  none
attr source  packetReceivedFromUpper
attr title  "packets received from higher layer, sum(packetBytes)"
scalar ExamTaskNetwork_no_CCTV.BrowsingLaptop[1].wlan[0].mac 	passedUpPk:count 	46160
attr interpolationmode  none
attr source  packetSentToUpper
attr title  "packets passed to higher layer, count"
scalar ExamTaskNetwork_no_CCTV.BrowsingLaptop[1].wlan[0].mac 	passedUpPk:sum(packetBytes) 	30968514
attr interpolationmode  none
attr source  packetSentToUpper
attr title  "packets passed to higher layer, sum(packetBytes)"
scalar ExamTaskNetwork_no_CCTV.BrowsingLaptop[1].wlan[0].mac 	rcvdPkFromLL:count 	3509207
attr interpolationmode  none
attr source  packetReceivedFromLower
attr title  "packets received from lower layer, count"
scalar ExamTaskNetwork_no_CCTV.BrowsingLaptop[1].wlan[0].mac 	rcvdPkFromLL:sum(packetBytes) 	1388900544
attr interpolationmode  none
attr source  packetReceivedFromLower
attr title  "packets received from lower layer, sum(packetBytes)"
scalar ExamTaskNetwork_no_CCTV.BrowsingLaptop[1].wlan[0].mac 	sentDownPk:count 	55938
attr interpolationmode  none
attr source  packetSentToLower
attr title  "packets sent to lower layer, count"
scalar ExamTaskNetwork_no_CCTV.BrowsingLaptop[1].wlan[0].mac 	sentDownPk:sum(packetBytes) 	2398104
attr interpolationmode  none
attr source  packetSentToLower
attr title  "packets sent to lower layer, sum(packetBytes)"
scalar ExamTaskNetwork_no_CCTV.BrowsingLaptop[1].wlan[0].radio 	lossRate:min 	0
attr interpolationmode  backward-sample-hold
attr title  "packet loss rate, min"
scalar ExamTaskNetwork_no_CCTV.BrowsingLaptop[1].wlan[0].radio 	lossRate:max 	0.18
attr interpolationmode  backward-sample-hold
attr title  "packet loss rate, max"
scalar ExamTaskNetwork_no_CCTV.BrowsingLaptop[1].wlan[0].radio 	lossRate:timeavg 	0.014026908009079
attr interpolationmode  backward-sample-hold
attr title  "packet loss rate, timeavg"
statistic ExamTaskNetwork_no_CCTV.BrowsingLaptop[1].wlan[0].radio 	channelNo:histogram
field count 1
field mean 0
field stddev -nan
field sum 0
field sqrsum 0
field min 0
field max 0
attr interpolationmode  sample-hold
attr title  "channel no, histogram"
bin	-INF	0
bin	-0.5	0
bin	-0.46666666666667	0
bin	-0.43333333333333	0
bin	-0.4	0
bin	-0.36666666666667	0
bin	-0.33333333333333	0
bin	-0.3	0
bin	-0.26666666666667	0
bin	-0.23333333333333	0
bin	-0.2	0
bin	-0.16666666666667	0
bin	-0.13333333333333	0
bin	-0.1	0
bin	-0.066666666666667	0
bin	-0.033333333333333	0
bin	0	1
bin	0.033333333333333	0
bin	0.066666666666667	0
bin	0.1	0
bin	0.13333333333333	0
bin	0.16666666666667	0
bin	0.2	0
bin	0.23333333333333	0
bin	0.26666666666667	0
bin	0.3	0
bin	0.33333333333333	0
bin	0.36666666666667	0
bin	0.4	0
bin	0.43333333333333	0
bin	0.46666666666667	0
bin	0.5	0
scalar ExamTaskNetwork_no_CCTV.BrowsingLaptop[1].wlan[0].radio 	radioState:count 	7130615
attr interpolationmode  sample-hold
attr title  "radio state (enum), count"
scalar ExamTaskNetwork_no_CCTV.BrowsingLaptop[1].wlan[0].radio 	bitrate:min 	54000000
attr interpolationmode  sample-hold
attr title  "tx bitrate, min"
attr unit  bps
scalar ExamTaskNetwork_no_CCTV.BrowsingLaptop[1].wlan[0].radio 	bitrate:max 	54000000
attr interpolationmode  sample-hold
attr title  "tx bitrate, max"
attr unit  bps
scalar ExamTaskNetwork_no_CCTV.BrowsingLaptop[1].wlan[0].radio 	bitrate:timeavg 	54000000
attr interpolationmode  sample-hold
attr title  "tx bitrate, timeavg"
attr unit  bps
scalar ExamTaskNetwork_no_CCTV.BrowsingLaptop[1].tcpApp[0] 	numActiveSessions:max 	1
attr interpolationmode  sample-hold
attr source  sum(connect)
attr title  "number of active sessions, max"
scalar ExamTaskNetwork_no_CCTV.BrowsingLaptop[1].tcpApp[0] 	numActiveSessions:timeavg 	0.36901520775231
attr interpolationmode  sample-hold
attr source  sum(connect)
attr title  "number of active sessions, timeavg"
scalar ExamTaskNetwork_no_CCTV.BrowsingLaptop[1].tcpApp[0] 	numSessions:last 	30
attr source  sum(connect+1)/2
attr title  "total number of sessions, last"
scalar ExamTaskNetwork_no_CCTV.BrowsingLaptop[1].tcpApp[0] 	sentPk:count 	30
attr interpolationmode  none
attr source  sentPk
attr title  "packets sent, count"
scalar ExamTaskNetwork_no_CCTV.BrowsingLaptop[1].tcpApp[0] 	sentPk:sum(packetBytes) 	245760
attr interpolationmode  none
attr source  sentPk
attr title  "packets sent, sum(packetBytes)"
scalar ExamTaskNetwork_no_CCTV.BrowsingLaptop[1].tcpApp[0] 	rcvdPk:count 	30
attr interpolationmode  none
attr source  rcvdPk
attr title  "packets received, count"
scalar ExamTaskNetwork_no_CCTV.BrowsingLaptop[1].tcpApp[0] 	rcvdPk:sum(packetBytes) 	25123642
attr interpolationmode  none
attr source  rcvdPk
attr title  "packets received, sum(packetBytes)"
statistic ExamTaskNetwork_no_CCTV.BrowsingLaptop[1].tcpApp[0] 	endToEndDelay:histogram
field count 30
field mean 12.173201165384
field stddev 13.734594924556
field sum 365.19603496153
field sqrsum 9916.1386328953
field min 0.770000979202
field max 59.67427976275
attr interpolationmode  none
attr source  messageAge(rcvdPk)
attr title  "end-to-end delay, histogram"
attr unit  s
bin	-INF	0
bin	-28.682138412572	0
bin	-24.755186493669	0
bin	-20.828234574766	0
bin	-16.901282655862	0
bin	-12.974330736959	0
bin	-9.047378818056	0
bin	-5.1204268991528	0
bin	-1.1934749802496	7
bin	2.7334769386536	6
bin	6.6604288575568	5
bin	10.58738077646	3
bin	14.514332695363	5
bin	18.441284614266	0
bin	22.36823653317	1
bin	26.295188452073	0
bin	30.222140370976	1
bin	34.149092289879	0
bin	38.076044208782	0
bin	42.002996127686	0
bin	45.929948046589	1
bin	49.856899965492	0
bin	53.783851884395	0
bin	57.710803803298	1
bin	61.637755722202	0
bin	65.564707641105	0
bin	69.491659560008	0
bin	73.418611478911	0
bin	77.345563397814	0
bin	81.272515316718	0
bin	85.199467235621	0
bin	89.126419154524	0
scalar ExamTaskNetwork_no_CCTV.BrowsingLaptop[2].networkLayer.arp 	initiatedARPResolution:count 	7
attr title  "ARP initiated resolutions, count"
scalar ExamTaskNetwork_no_CCTV.BrowsingLaptop[2].networkLayer.arp 	sentReply:count 	1
attr title  "ARP replies sent, count"
scalar ExamTaskNetwork_no_CCTV.BrowsingLaptop[2].networkLayer.arp 	sentReq:count 	7
attr title  "ARP request sent, count"
scalar ExamTaskNetwork_no_CCTV.BrowsingLaptop[2].networkLayer.arp 	failedARPResolution:count 	0
attr title  "ARP failed resolutions, count"
scalar ExamTaskNetwork_no_CCTV.BrowsingLaptop[2].networkLayer.arp 	completedARPResolution:count 	30
attr title  "ARP completed resolutions, count"
scalar ExamTaskNetwork_no_CCTV.BrowsingLaptop[2].lo0.lo 	rcvdPkFromHL:count 	0
attr interpolationmode  none
attr source  packetReceivedFromUpper
attr title  "packets received from higher layer, count"
scalar ExamTaskNetwork_no_CCTV.BrowsingLaptop[2].lo0.lo 	rcvdPkFromHL:sum(packetBytes) 	0
attr interpolationmode  none
attr source  packetReceivedFromUpper
attr title  "packets received from higher layer, sum(packetBytes)"
scalar ExamTaskNetwork_no_CCTV.BrowsingLaptop[2].lo0.lo 	passedUpPk:count 	0
attr interpolationmode  none
attr source  packetSentToUpper
attr title  "packets passed to higher layer, count"
scalar ExamTaskNetwork_no_CCTV.BrowsingLaptop[2].lo0.lo 	passedUpPk:sum(packetBytes) 	0
attr interpolationmode  none
attr source  packetSentToUpper
attr title  "packets passed to higher layer, sum(packetBytes)"
scalar ExamTaskNetwork_no_CCTV.BrowsingLaptop[2].lo0.lo 	droppedPkBitError:count 	0
attr interpolationmode  none
attr source  dropPkBitError
attr title  "packets dropped/bit error, count"
scalar ExamTaskNetwork_no_CCTV.BrowsingLaptop[2].lo0.lo 	droppedPkBitError:sum(packetBytes) 	0
attr interpolationmode  none
attr source  dropPkBitError
attr title  "packets dropped/bit error, sum(packetBytes)"
scalar ExamTaskNetwork_no_CCTV.BrowsingLaptop[2].wlan[0].agent 	dropConfirm:count 	0
attr title  "dropped confirms, count"
scalar ExamTaskNetwork_no_CCTV.BrowsingLaptop[2].wlan[0].agent 	acceptConfirm:count 	42
attr title  "accepted confirms, count"
scalar ExamTaskNetwork_no_CCTV.BrowsingLaptop[2].wlan[0].agent 	sentRequest:count 	42
attr title  "sent requests, count"
scalar ExamTaskNetwork_no_CCTV.BrowsingLaptop[2].wlan[0].mgmt 	dropPkByQueue:count 	0
attr interpolationmode  none
attr source  dropPkByQueue
attr title  "packets dropped by queue, count"
scalar ExamTaskNetwork_no_CCTV.BrowsingLaptop[2].wlan[0].mgmt 	dropPkByQueue:sum(packetBytes) 	0
attr interpolationmode  none
attr source  dropPkByQueue
attr title  "packets dropped by queue, sum(packetBytes)"
scalar ExamTaskNetwork_no_CCTV.BrowsingLaptop[2].wlan[0].mgmt 	dataQueueLen:max 	0
attr interpolationmode  sample-hold
attr title  "data queue length, max"
scalar ExamTaskNetwork_no_CCTV.BrowsingLaptop[2].wlan[0].mgmt 	dataQueueLen:timeavg 	0
attr interpolationmode  sample-hold
attr title  "data queue length, timeavg"
scalar ExamTaskNetwork_no_CCTV.BrowsingLaptop[2].wlan[0].mac 	"number of received packets" 	30178
scalar ExamTaskNetwork_no_CCTV.BrowsingLaptop[2].wlan[0].mac 	"number of collisions" 	51658
scalar ExamTaskNetwork_no_CCTV.BrowsingLaptop[2].wlan[0].mac 	"number of internal collisions" 	0
scalar ExamTaskNetwork_no_CCTV.BrowsingLaptop[2].wlan[0].mac 	"number of retry for AC 0" 	94
scalar ExamTaskNetwork_no_CCTV.BrowsingLaptop[2].wlan[0].mac 	"sent and received bits" 	11753824
scalar ExamTaskNetwork_no_CCTV.BrowsingLaptop[2].wlan[0].mac 	"sent packet within AC 0" 	14881
scalar ExamTaskNetwork_no_CCTV.BrowsingLaptop[2].wlan[0].mac 	"sent in TXOP " 	0
scalar ExamTaskNetwork_no_CCTV.BrowsingLaptop[2].wlan[0].mac 	"sentWithoutRetry AC 0" 	14818
scalar ExamTaskNetwork_no_CCTV.BrowsingLaptop[2].wlan[0].mac 	"numGivenUp AC 0" 	0
scalar ExamTaskNetwork_no_CCTV.BrowsingLaptop[2].wlan[0].mac 	"numDropped AC 0" 	0
scalar ExamTaskNetwork_no_CCTV.BrowsingLaptop[2].wlan[0].mac 	rcvdPkFromHL:count 	14895
attr interpolationmode  none
attr source  packetReceivedFromUpper
attr title  "packets received from higher layer, count"
scalar ExamTaskNetwork_no_CCTV.BrowsingLaptop[2].wlan[0].mac 	rcvdPkFromHL:sum(packetBytes) 	1469228
attr interpolationmode  none
attr source  packetReceivedFromUpper
attr title  "packets received from higher layer, sum(packetBytes)"
scalar ExamTaskNetwork_no_CCTV.BrowsingLaptop[2].wlan[0].mac 	passedUpPk:count 	39557
attr interpolationmode  none
attr source  packetSentToUpper
attr title  "packets passed to higher layer, count"
scalar ExamTaskNetwork_no_CCTV.BrowsingLaptop[2].wlan[0].mac 	passedUpPk:sum(packetBytes) 	25486105
attr interpolationmode  none
attr source  packetSentToUpper
attr title  "packets passed to higher layer, sum(packetBytes)"
scalar ExamTaskNetwork_no_CCTV.BrowsingLaptop[2].wlan[0].mac 	rcvdPkFromLL:count 	3519978
attr interpolationmode  none
attr source  packetReceivedFromLower
attr title  "packets received from lower layer, count"
scalar ExamTaskNetwork_no_CCTV.BrowsingLaptop[2].wlan[0].mac 	rcvdPkFromLL:sum(packetBytes) 	1389342018
attr interpolationmode  none
attr source  packetReceivedFromLower
attr title  "packets received from lower layer, sum(packetBytes)"
scalar ExamTaskNetwork_no_CCTV.BrowsingLaptop[2].wlan[0].mac 	sentDownPk:count 	45167
attr interpolationmode  none
attr source  packetSentToLower
attr title  "packets sent to lower layer, count"
scalar ExamTaskNetwork_no_CCTV.BrowsingLaptop[2].wlan[0].mac 	sentDownPk:sum(packetBytes) 	1936718
attr interpolationmode  none
attr source  packetSentToLower
attr title  "packets sent to lower layer, sum(packetBytes)"
scalar ExamTaskNetwork_no_CCTV.BrowsingLaptop[2].wlan[0].radio 	lossRate:min 	0
attr interpolationmode  backward-sample-hold
attr title  "packet loss rate, min"
scalar ExamTaskNetwork_no_CCTV.BrowsingLaptop[2].wlan[0].radio 	lossRate:max 	0.2
attr interpolationmode  backward-sample-hold
attr title  "packet loss rate, max"
scalar ExamTaskNetwork_no_CCTV.BrowsingLaptop[2].wlan[0].radio 	lossRate:timeavg 	0.01404429794153
attr interpolationmode  backward-sample-hold
attr title  "packet loss rate, timeavg"
statistic ExamTaskNetwork_no_CCTV.BrowsingLaptop[2].wlan[0].radio 	channelNo:histogram
field count 1
field mean 0
field stddev -nan
field sum 0
field sqrsum 0
field min 0
field max 0
attr interpolationmode  sample-hold
attr title  "channel no, histogram"
bin	-INF	0
bin	-0.5	0
bin	-0.46666666666667	0
bin	-0.43333333333333	0
bin	-0.4	0
bin	-0.36666666666667	0
bin	-0.33333333333333	0
bin	-0.3	0
bin	-0.26666666666667	0
bin	-0.23333333333333	0
bin	-0.2	0
bin	-0.16666666666667	0
bin	-0.13333333333333	0
bin	-0.1	0
bin	-0.066666666666667	0
bin	-0.033333333333333	0
bin	0	1
bin	0.033333333333333	0
bin	0.066666666666667	0
bin	0.1	0
bin	0.13333333333333	0
bin	0.16666666666667	0
bin	0.2	0
bin	0.23333333333333	0
bin	0.26666666666667	0
bin	0.3	0
bin	0.33333333333333	0
bin	0.36666666666667	0
bin	0.4	0
bin	0.43333333333333	0
bin	0.46666666666667	0
bin	0.5	0
scalar ExamTaskNetwork_no_CCTV.BrowsingLaptop[2].wlan[0].radio 	radioState:count 	7130407
attr interpolationmode  sample-hold
attr title  "radio state (enum), count"
scalar ExamTaskNetwork_no_CCTV.BrowsingLaptop[2].wlan[0].radio 	bitrate:min 	54000000
attr interpolationmode  sample-hold
attr title  "tx bitrate, min"
attr unit  bps
scalar ExamTaskNetwork_no_CCTV.BrowsingLaptop[2].wlan[0].radio 	bitrate:max 	54000000
attr interpolationmode  sample-hold
attr title  "tx bitrate, max"
attr unit  bps
scalar ExamTaskNetwork_no_CCTV.BrowsingLaptop[2].wlan[0].radio 	bitrate:timeavg 	54000000
attr interpolationmode  sample-hold
attr title  "tx bitrate, timeavg"
attr unit  bps
scalar ExamTaskNetwork_no_CCTV.BrowsingLaptop[2].tcpApp[0] 	numActiveSessions:max 	1
attr interpolationmode  sample-hold
attr source  sum(connect)
attr title  "number of active sessions, max"
scalar ExamTaskNetwork_no_CCTV.BrowsingLaptop[2].tcpApp[0] 	numActiveSessions:timeavg 	0.36786241836832
attr interpolationmode  sample-hold
attr source  sum(connect)
attr title  "number of active sessions, timeavg"
scalar ExamTaskNetwork_no_CCTV.BrowsingLaptop[2].tcpApp[0] 	numSessions:last 	30
attr source  sum(connect+1)/2
attr title  "total number of sessions, last"
scalar ExamTaskNetwork_no_CCTV.BrowsingLaptop[2].tcpApp[0] 	sentPk:count 	30
attr interpolationmode  none
attr source  sentPk
attr title  "packets sent, count"
scalar ExamTaskNetwork_no_CCTV.BrowsingLaptop[2].tcpApp[0] 	sentPk:sum(packetBytes) 	245760
attr interpolationmode  none
attr source  sentPk
attr title  "packets sent, sum(packetBytes)"
scalar ExamTaskNetwork_no_CCTV.BrowsingLaptop[2].tcpApp[0] 	rcvdPk:count 	30
attr interpolationmode  none
attr source  rcvdPk
attr title  "packets received, count"
scalar ExamTaskNetwork_no_CCTV.BrowsingLaptop[2].tcpApp[0] 	rcvdPk:sum(packetBytes) 	20841261
attr interpolationmode  none
attr source  rcvdPk
attr title  "packets received, sum(packetBytes)"
statistic ExamTaskNetwork_no_CCTV.BrowsingLaptop[2].tcpApp[0] 	endToEndDelay:histogram
field count 30
field mean 12.127396995474
field stddev 9.4093946019693
field sum 363.82190986423
field sqrsum 6979.7772330666
field min 0.706889847509
field max 44.936485546213
attr interpolationmode  none
attr source  messageAge(rcvdPk)
attr title  "end-to-end delay, histogram"
attr unit  s
bin	-INF	0
bin	-21.407908001843	0
bin	-18.459268288596	0
bin	-15.510628575349	0
bin	-12.561988862102	0
bin	-9.6133491488553	0
bin	-6.6647094356083	0
bin	-3.7160697223614	0
bin	-0.76743000911447	1
bin	2.1812097041325	5
bin	5.1298494173794	5
bin	8.0784891306263	8
bin	11.027128843873	3
bin	13.97576855712	1
bin	16.924408270367	1
bin	19.873047983614	3
bin	22.821687696861	1
bin	25.770327410108	0
bin	28.718967123355	1
bin	31.667606836602	0
bin	34.616246549849	0
bin	37.564886263096	0
bin	40.513525976343	0
bin	43.46216568959	1
bin	46.410805402836	0
bin	49.359445116083	0
bin	52.30808482933	0
bin	55.256724542577	0
bin	58.205364255824	0
bin	61.154003969071	0
bin	64.102643682318	0
bin	67.051283395565	0
scalar ExamTaskNetwork_no_CCTV.BrowsingLaptop[3].networkLayer.arp 	initiatedARPResolution:count 	8
attr title  "ARP initiated resolutions, count"
scalar ExamTaskNetwork_no_CCTV.BrowsingLaptop[3].networkLayer.arp 	sentReply:count 	1
attr title  "ARP replies sent, count"
scalar ExamTaskNetwork_no_CCTV.BrowsingLaptop[3].networkLayer.arp 	sentReq:count 	9
attr title  "ARP request sent, count"
scalar ExamTaskNetwork_no_CCTV.BrowsingLaptop[3].networkLayer.arp 	failedARPResolution:count 	0
attr title  "ARP failed resolutions, count"
scalar ExamTaskNetwork_no_CCTV.BrowsingLaptop[3].networkLayer.arp 	completedARPResolution:count 	12
attr title  "ARP completed resolutions, count"
scalar ExamTaskNetwork_no_CCTV.BrowsingLaptop[3].lo0.lo 	rcvdPkFromHL:count 	0
attr interpolationmode  none
attr source  packetReceivedFromUpper
attr title  "packets received from higher layer, count"
scalar ExamTaskNetwork_no_CCTV.BrowsingLaptop[3].lo0.lo 	rcvdPkFromHL:sum(packetBytes) 	0
attr interpolationmode  none
attr source  packetReceivedFromUpper
attr title  "packets received from higher layer, sum(packetBytes)"
scalar ExamTaskNetwork_no_CCTV.BrowsingLaptop[3].lo0.lo 	passedUpPk:count 	0
attr interpolationmode  none
attr source  packetSentToUpper
attr title  "packets passed to higher layer, count"
scalar ExamTaskNetwork_no_CCTV.BrowsingLaptop[3].lo0.lo 	passedUpPk:sum(packetBytes) 	0
attr interpolationmode  none
attr source  packetSentToUpper
attr title  "packets passed to higher layer, sum(packetBytes)"
scalar ExamTaskNetwork_no_CCTV.BrowsingLaptop[3].lo0.lo 	droppedPkBitError:count 	0
attr interpolationmode  none
attr source  dropPkBitError
attr title  "packets dropped/bit error, count"
scalar ExamTaskNetwork_no_CCTV.BrowsingLaptop[3].lo0.lo 	droppedPkBitError:sum(packetBytes) 	0
attr interpolationmode  none
attr source  dropPkBitError
attr title  "packets dropped/bit error, sum(packetBytes)"
scalar ExamTaskNetwork_no_CCTV.BrowsingLaptop[3].wlan[0].agent 	dropConfirm:count 	0
attr title  "dropped confirms, count"
scalar ExamTaskNetwork_no_CCTV.BrowsingLaptop[3].wlan[0].agent 	acceptConfirm:count 	42
attr title  "accepted confirms, count"
scalar ExamTaskNetwork_no_CCTV.BrowsingLaptop[3].wlan[0].agent 	sentRequest:count 	42
attr title  "sent requests, count"
scalar ExamTaskNetwork_no_CCTV.BrowsingLaptop[3].wlan[0].mgmt 	dropPkByQueue:count 	88
attr interpolationmode  none
attr source  dropPkByQueue
attr title  "packets dropped by queue, count"
scalar ExamTaskNetwork_no_CCTV.BrowsingLaptop[3].wlan[0].mgmt 	dropPkByQueue:sum(packetBytes) 	8624
attr interpolationmode  none
attr source  dropPkByQueue
attr title  "packets dropped by queue, sum(packetBytes)"
scalar ExamTaskNetwork_no_CCTV.BrowsingLaptop[3].wlan[0].mgmt 	dataQueueLen:max 	50
attr interpolationmode  sample-hold
attr title  "data queue length, max"
scalar ExamTaskNetwork_no_CCTV.BrowsingLaptop[3].wlan[0].mgmt 	dataQueueLen:timeavg 	0.0063432982996783
attr interpolationmode  sample-hold
attr title  "data queue length, timeavg"
scalar ExamTaskNetwork_no_CCTV.BrowsingLaptop[3].wlan[0].mac 	"number of received packets" 	17852
scalar ExamTaskNetwork_no_CCTV.BrowsingLaptop[3].wlan[0].mac 	"number of collisions" 	51602
scalar ExamTaskNetwork_no_CCTV.BrowsingLaptop[3].wlan[0].mac 	"number of internal collisions" 	0
scalar ExamTaskNetwork_no_CCTV.BrowsingLaptop[3].wlan[0].mac 	"number of retry for AC 0" 	162
scalar ExamTaskNetwork_no_CCTV.BrowsingLaptop[3].wlan[0].mac 	"sent and received bits" 	7575792
scalar ExamTaskNetwork_no_CCTV.BrowsingLaptop[3].wlan[0].mac 	"sent packet within AC 0" 	9248
scalar ExamTaskNetwork_no_CCTV.BrowsingLaptop[3].wlan[0].mac 	"sent in TXOP " 	0
scalar ExamTaskNetwork_no_CCTV.BrowsingLaptop[3].wlan[0].mac 	"sentWithoutRetry AC 0" 	9124
scalar ExamTaskNetwork_no_CCTV.BrowsingLaptop[3].wlan[0].mac 	"numGivenUp AC 0" 	0
scalar ExamTaskNetwork_no_CCTV.BrowsingLaptop[3].wlan[0].mac 	"numDropped AC 0" 	0
scalar ExamTaskNetwork_no_CCTV.BrowsingLaptop[3].wlan[0].mac 	rcvdPkFromHL:count 	9262
attr interpolationmode  none
attr source  packetReceivedFromUpper
attr title  "packets received from higher layer, count"
scalar ExamTaskNetwork_no_CCTV.BrowsingLaptop[3].wlan[0].mac 	rcvdPkFromHL:sum(packetBytes) 	946974
attr interpolationmode  none
attr source  packetReceivedFromUpper
attr title  "packets received from higher layer, sum(packetBytes)"
scalar ExamTaskNetwork_no_CCTV.BrowsingLaptop[3].wlan[0].mac 	passedUpPk:count 	27231
attr interpolationmode  none
attr source  packetSentToUpper
attr title  "packets passed to higher layer, count"
scalar ExamTaskNetwork_no_CCTV.BrowsingLaptop[3].wlan[0].mac 	passedUpPk:sum(packetBytes) 	15284563
attr interpolationmode  none
attr source  packetSentToUpper
attr title  "packets passed to higher layer, sum(packetBytes)"
scalar ExamTaskNetwork_no_CCTV.BrowsingLaptop[3].wlan[0].mac 	rcvdPkFromLL:count 	3537869
attr interpolationmode  none
attr source  packetReceivedFromLower
attr title  "packets received from lower layer, count"
scalar ExamTaskNetwork_no_CCTV.BrowsingLaptop[3].wlan[0].mac 	rcvdPkFromLL:sum(packetBytes) 	1390082738
attr interpolationmode  none
attr source  packetReceivedFromLower
attr title  "packets received from lower layer, sum(packetBytes)"
scalar ExamTaskNetwork_no_CCTV.BrowsingLaptop[3].wlan[0].mac 	sentDownPk:count 	27276
attr interpolationmode  none
attr source  packetSentToLower
attr title  "packets sent to lower layer, count"
scalar ExamTaskNetwork_no_CCTV.BrowsingLaptop[3].wlan[0].mac 	sentDownPk:sum(packetBytes) 	1238782
attr interpolationmode  none
attr source  packetSentToLower
attr title  "packets sent to lower layer, sum(packetBytes)"
scalar ExamTaskNetwork_no_CCTV.BrowsingLaptop[3].wlan[0].radio 	lossRate:min 	0
attr interpolationmode  backward-sample-hold
attr title  "packet loss rate, min"
scalar ExamTaskNetwork_no_CCTV.BrowsingLaptop[3].wlan[0].radio 	lossRate:max 	0.18
attr interpolationmode  backward-sample-hold
attr title  "packet loss rate, max"
scalar ExamTaskNetwork_no_CCTV.BrowsingLaptop[3].wlan[0].radio 	lossRate:timeavg 	0.013968015807341
attr interpolationmode  backward-sample-hold
attr title  "packet loss rate, timeavg"
statistic ExamTaskNetwork_no_CCTV.BrowsingLaptop[3].wlan[0].radio 	channelNo:histogram
field count 1
field mean 0
field stddev -nan
field sum 0
field sqrsum 0
field min 0
field max 0
attr interpolationmode  sample-hold
attr title  "channel no, histogram"
bin	-INF	0
bin	-0.5	0
bin	-0.46666666666667	0
bin	-0.43333333333333	0
bin	-0.4	0
bin	-0.36666666666667	0
bin	-0.33333333333333	0
bin	-0.3	0
bin	-0.26666666666667	0
bin	-0.23333333333333	0
bin	-0.2	0
bin	-0.16666666666667	0
bin	-0.13333333333333	0
bin	-0.1	0
bin	-0.066666666666667	0
bin	-0.033333333333333	0
bin	0	1
bin	0.033333333333333	0
bin	0.066666666666667	0
bin	0.1	0
bin	0.13333333333333	0
bin	0.16666666666667	0
bin	0.2	0
bin	0.23333333333333	0
bin	0.26666666666667	0
bin	0.3	0
bin	0.33333333333333	0
bin	0.36666666666667	0
bin	0.4	0
bin	0.43333333333333	0
bin	0.46666666666667	0
bin	0.5	0
scalar ExamTaskNetwork_no_CCTV.BrowsingLaptop[3].wlan[0].radio 	radioState:count 	7130480
attr interpolationmode  sample-hold
attr title  "radio state (enum), count"
scalar ExamTaskNetwork_no_CCTV.BrowsingLaptop[3].wlan[0].radio 	bitrate:min 	54000000
attr interpolationmode  sample-hold
attr title  "tx bitrate, min"
attr unit  bps
scalar ExamTaskNetwork_no_CCTV.BrowsingLaptop[3].wlan[0].radio 	bitrate:max 	54000000
attr interpolationmode  sample-hold
attr title  "tx bitrate, max"
attr unit  bps
scalar ExamTaskNetwork_no_CCTV.BrowsingLaptop[3].wlan[0].radio 	bitrate:timeavg 	54000000
attr interpolationmode  sample-hold
attr title  "tx bitrate, timeavg"
attr unit  bps
scalar ExamTaskNetwork_no_CCTV.BrowsingLaptop[3].tcpApp[0] 	numActiveSessions:max 	1
attr interpolationmode  sample-hold
attr source  sum(connect)
attr title  "number of active sessions, max"
scalar ExamTaskNetwork_no_CCTV.BrowsingLaptop[3].tcpApp[0] 	numActiveSessions:timeavg 	0.25768702785732
attr interpolationmode  sample-hold
attr source  sum(connect)
attr title  "number of active sessions, timeavg"
scalar ExamTaskNetwork_no_CCTV.BrowsingLaptop[3].tcpApp[0] 	numSessions:last 	22
attr source  sum(connect+1)/2
attr title  "total number of sessions, last"
scalar ExamTaskNetwork_no_CCTV.BrowsingLaptop[3].tcpApp[0] 	sentPk:count 	22
attr interpolationmode  none
attr source  sentPk
attr title  "packets sent, count"
scalar ExamTaskNetwork_no_CCTV.BrowsingLaptop[3].tcpApp[0] 	sentPk:sum(packetBytes) 	180224
attr interpolationmode  none
attr source  sentPk
attr title  "packets sent, sum(packetBytes)"
scalar ExamTaskNetwork_no_CCTV.BrowsingLaptop[3].tcpApp[0] 	rcvdPk:count 	22
attr interpolationmode  none
attr source  rcvdPk
attr title  "packets received, count"
scalar ExamTaskNetwork_no_CCTV.BrowsingLaptop[3].tcpApp[0] 	rcvdPk:sum(packetBytes) 	12390028
attr interpolationmode  none
attr source  rcvdPk
attr title  "packets received, sum(packetBytes)"
statistic ExamTaskNetwork_no_CCTV.BrowsingLaptop[3].tcpApp[0] 	endToEndDelay:histogram
field count 22
field mean 11.389033429792
field stddev 9.0280560215677
field sum 250.55873545542
field sqrsum 4565.243520328
field min 0.6755996831
field max 39.314522140699
attr interpolationmode  none
attr source  messageAge(rcvdPk)
attr title  "end-to-end delay, histogram"
attr unit  s
bin	-INF	0
bin	-18.643861545699	0
bin	-16.06793338186	0
bin	-13.49200521802	0
bin	-10.91607705418	0
bin	-8.3401488903398	0
bin	-5.7642207264998	0
bin	-3.1882925626599	0
bin	-0.61236439881996	4
bin	1.96356376502	2
bin	4.5394919288599	2
bin	7.1154200926998	3
bin	9.6913482565398	2
bin	12.26727642038	2
bin	14.84320458422	3
bin	17.41913274806	1
bin	19.9950609119	2
bin	22.570989075739	0
bin	25.146917239579	0
bin	27.722845403419	0
bin	30.298773567259	0
bin	32.874701731099	0
bin	35.450629894939	0
bin	38.026558058779	1
bin	40.602486222619	0
bin	43.178414386459	0
bin	45.754342550299	0
bin	48.330270714139	0
bin	50.906198877979	0
bin	53.482127041819	0
bin	56.058055205659	0
bin	58.633983369498	0
scalar ExamTaskNetwork_no_CCTV.BrowsingLaptop[4].networkLayer.arp 	initiatedARPResolution:count 	8
attr title  "ARP initiated resolutions, count"
scalar ExamTaskNetwork_no_CCTV.BrowsingLaptop[4].networkLayer.arp 	sentReply:count 	2
attr title  "ARP replies sent, count"
scalar ExamTaskNetwork_no_CCTV.BrowsingLaptop[4].networkLayer.arp 	sentReq:count 	8
attr title  "ARP request sent, count"
scalar ExamTaskNetwork_no_CCTV.BrowsingLaptop[4].networkLayer.arp 	failedARPResolution:count 	0
attr title  "ARP failed resolutions, count"
scalar ExamTaskNetwork_no_CCTV.BrowsingLaptop[4].networkLayer.arp 	completedARPResolution:count 	50
attr title  "ARP completed resolutions, count"
scalar ExamTaskNetwork_no_CCTV.BrowsingLaptop[4].lo0.lo 	rcvdPkFromHL:count 	0
attr interpolationmode  none
attr source  packetReceivedFromUpper
attr title  "packets received from higher layer, count"
scalar ExamTaskNetwork_no_CCTV.BrowsingLaptop[4].lo0.lo 	rcvdPkFromHL:sum(packetBytes) 	0
attr interpolationmode  none
attr source  packetReceivedFromUpper
attr title  "packets received from higher layer, sum(packetBytes)"
scalar ExamTaskNetwork_no_CCTV.BrowsingLaptop[4].lo0.lo 	passedUpPk:count 	0
attr interpolationmode  none
attr source  packetSentToUpper
attr title  "packets passed to higher layer, count"
scalar ExamTaskNetwork_no_CCTV.BrowsingLaptop[4].lo0.lo 	passedUpPk:sum(packetBytes) 	0
attr interpolationmode  none
attr source  packetSentToUpper
attr title  "packets passed to higher layer, sum(packetBytes)"
scalar ExamTaskNetwork_no_CCTV.BrowsingLaptop[4].lo0.lo 	droppedPkBitError:count 	0
attr interpolationmode  none
attr source  dropPkBitError
attr title  "packets dropped/bit error, count"
scalar ExamTaskNetwork_no_CCTV.BrowsingLaptop[4].lo0.lo 	droppedPkBitError:sum(packetBytes) 	0
attr interpolationmode  none
attr source  dropPkBitError
attr title  "packets dropped/bit error, sum(packetBytes)"
scalar ExamTaskNetwork_no_CCTV.BrowsingLaptop[4].wlan[0].agent 	dropConfirm:count 	0
attr title  "dropped confirms, count"
scalar ExamTaskNetwork_no_CCTV.BrowsingLaptop[4].wlan[0].agent 	acceptConfirm:count 	42
attr title  "accepted confirms, count"
scalar ExamTaskNetwork_no_CCTV.BrowsingLaptop[4].wlan[0].agent 	sentRequest:count 	42
attr title  "sent requests, count"
scalar ExamTaskNetwork_no_CCTV.BrowsingLaptop[4].wlan[0].mgmt 	dropPkByQueue:count 	0
attr interpolationmode  none
attr source  dropPkByQueue
attr title  "packets dropped by queue, count"
scalar ExamTaskNetwork_no_CCTV.BrowsingLaptop[4].wlan[0].mgmt 	dropPkByQueue:sum(packetBytes) 	0
attr interpolationmode  none
attr source  dropPkByQueue
attr title  "packets dropped by queue, sum(packetBytes)"
scalar ExamTaskNetwork_no_CCTV.BrowsingLaptop[4].wlan[0].mgmt 	dataQueueLen:max 	6
attr interpolationmode  sample-hold
attr title  "data queue length, max"
scalar ExamTaskNetwork_no_CCTV.BrowsingLaptop[4].wlan[0].mgmt 	dataQueueLen:timeavg 	4.0450931467252e-05
attr interpolationmode  sample-hold
attr title  "data queue length, timeavg"
scalar ExamTaskNetwork_no_CCTV.BrowsingLaptop[4].wlan[0].mac 	"number of received packets" 	38368
scalar ExamTaskNetwork_no_CCTV.BrowsingLaptop[4].wlan[0].mac 	"number of collisions" 	51635
scalar ExamTaskNetwork_no_CCTV.BrowsingLaptop[4].wlan[0].mac 	"number of internal collisions" 	0
scalar ExamTaskNetwork_no_CCTV.BrowsingLaptop[4].wlan[0].mac 	"number of retry for AC 0" 	114
scalar ExamTaskNetwork_no_CCTV.BrowsingLaptop[4].wlan[0].mac 	"sent and received bits" 	14569328
scalar ExamTaskNetwork_no_CCTV.BrowsingLaptop[4].wlan[0].mac 	"sent packet within AC 0" 	18791
scalar ExamTaskNetwork_no_CCTV.BrowsingLaptop[4].wlan[0].mac 	"sent in TXOP " 	0
scalar ExamTaskNetwork_no_CCTV.BrowsingLaptop[4].wlan[0].mac 	"sentWithoutRetry AC 0" 	18722
scalar ExamTaskNetwork_no_CCTV.BrowsingLaptop[4].wlan[0].mac 	"numGivenUp AC 0" 	0
scalar ExamTaskNetwork_no_CCTV.BrowsingLaptop[4].wlan[0].mac 	"numDropped AC 0" 	0
scalar ExamTaskNetwork_no_CCTV.BrowsingLaptop[4].wlan[0].mac 	rcvdPkFromHL:count 	18805
attr interpolationmode  none
attr source  packetReceivedFromUpper
attr title  "packets received from higher layer, count"
scalar ExamTaskNetwork_no_CCTV.BrowsingLaptop[4].wlan[0].mac 	rcvdPkFromHL:sum(packetBytes) 	1821166
attr interpolationmode  none
attr source  packetReceivedFromUpper
attr title  "packets received from higher layer, sum(packetBytes)"
scalar ExamTaskNetwork_no_CCTV.BrowsingLaptop[4].wlan[0].mac 	passedUpPk:count 	47745
attr interpolationmode  none
attr source  packetSentToUpper
attr title  "packets passed to higher layer, count"
scalar ExamTaskNetwork_no_CCTV.BrowsingLaptop[4].wlan[0].mac 	passedUpPk:sum(packetBytes) 	32410356
attr interpolationmode  none
attr source  packetSentToUpper
attr title  "packets passed to higher layer, sum(packetBytes)"
scalar ExamTaskNetwork_no_CCTV.BrowsingLaptop[4].wlan[0].mac 	rcvdPkFromLL:count 	3507858
attr interpolationmode  none
attr source  packetReceivedFromLower
attr title  "packets received from lower layer, count"
scalar ExamTaskNetwork_no_CCTV.BrowsingLaptop[4].wlan[0].mac 	rcvdPkFromLL:sum(packetBytes) 	1388794124
attr interpolationmode  none
attr source  packetReceivedFromLower
attr title  "packets received from lower layer, sum(packetBytes)"
scalar ExamTaskNetwork_no_CCTV.BrowsingLaptop[4].wlan[0].mac 	sentDownPk:count 	57287
attr interpolationmode  none
attr source  packetSentToLower
attr title  "packets sent to lower layer, count"
scalar ExamTaskNetwork_no_CCTV.BrowsingLaptop[4].wlan[0].mac 	sentDownPk:sum(packetBytes) 	2410614
attr interpolationmode  none
attr source  packetSentToLower
attr title  "packets sent to lower layer, sum(packetBytes)"
scalar ExamTaskNetwork_no_CCTV.BrowsingLaptop[4].wlan[0].radio 	lossRate:min 	0
attr interpolationmode  backward-sample-hold
attr title  "packet loss rate, min"
scalar ExamTaskNetwork_no_CCTV.BrowsingLaptop[4].wlan[0].radio 	lossRate:max 	0.18
attr interpolationmode  backward-sample-hold
attr title  "packet loss rate, max"
scalar ExamTaskNetwork_no_CCTV.BrowsingLaptop[4].wlan[0].radio 	lossRate:timeavg 	0.014089900212103
attr interpolationmode  backward-sample-hold
attr title  "packet loss rate, timeavg"
statistic ExamTaskNetwork_no_CCTV.BrowsingLaptop[4].wlan[0].radio 	channelNo:histogram
field count 1
field mean 0
field stddev -nan
field sum 0
field sqrsum 0
field min 0
field max 0
attr interpolationmode  sample-hold
attr title  "channel no, histogram"
bin	-INF	0
bin	-0.5	0
bin	-0.46666666666667	0
bin	-0.43333333333333	0
bin	-0.4	0
bin	-0.36666666666667	0
bin	-0.33333333333333	0
bin	-0.3	0
bin	-0.26666666666667	0
bin	-0.23333333333333	0
bin	-0.2	0
bin	-0.16666666666667	0
bin	-0.13333333333333	0
bin	-0.1	0
bin	-0.066666666666667	0
bin	-0.033333333333333	0
bin	0	1
bin	0.033333333333333	0
bin	0.066666666666667	0
bin	0.1	0
bin	0.13333333333333	0
bin	0.16666666666667	0
bin	0.2	0
bin	0.23333333333333	0
bin	0.26666666666667	0
bin	0.3	0
bin	0.33333333333333	0
bin	0.36666666666667	0
bin	0.4	0
bin	0.43333333333333	0
bin	0.46666666666667	0
bin	0.5	0
scalar ExamTaskNetwork_no_CCTV.BrowsingLaptop[4].wlan[0].radio 	radioState:count 	7130429
attr interpolationmode  sample-hold
attr title  "radio state (enum), count"
scalar ExamTaskNetwork_no_CCTV.BrowsingLaptop[4].wlan[0].radio 	bitrate:min 	54000000
attr interpolationmode  sample-hold
attr title  "tx bitrate, min"
attr unit  bps
scalar ExamTaskNetwork_no_CCTV.BrowsingLaptop[4].wlan[0].radio 	bitrate:max 	54000000
attr interpolationmode  sample-hold
attr title  "tx bitrate, max"
attr unit  bps
scalar ExamTaskNetwork_no_CCTV.BrowsingLaptop[4].wlan[0].radio 	bitrate:timeavg 	54000000
attr interpolationmode  sample-hold
attr title  "tx bitrate, timeavg"
attr unit  bps
scalar ExamTaskNetwork_no_CCTV.BrowsingLaptop[4].tcpApp[0] 	numActiveSessions:max 	1
attr interpolationmode  sample-hold
attr source  sum(connect)
attr title  "number of active sessions, max"
scalar ExamTaskNetwork_no_CCTV.BrowsingLaptop[4].tcpApp[0] 	numActiveSessions:timeavg 	0.47123926557433
attr interpolationmode  sample-hold
attr source  sum(connect)
attr title  "number of active sessions, timeavg"
scalar ExamTaskNetwork_no_CCTV.BrowsingLaptop[4].tcpApp[0] 	numSessions:last 	34
attr source  sum(connect+1)/2
attr title  "total number of sessions, last"
scalar ExamTaskNetwork_no_CCTV.BrowsingLaptop[4].tcpApp[0] 	sentPk:count 	34
attr interpolationmode  none
attr source  sentPk
attr title  "packets sent, count"
scalar ExamTaskNetwork_no_CCTV.BrowsingLaptop[4].tcpApp[0] 	sentPk:sum(packetBytes) 	278528
attr interpolationmode  none
attr source  sentPk
attr title  "packets sent, sum(packetBytes)"
scalar ExamTaskNetwork_no_CCTV.BrowsingLaptop[4].tcpApp[0] 	rcvdPk:count 	33
attr interpolationmode  none
attr source  rcvdPk
attr title  "packets received, count"
scalar ExamTaskNetwork_no_CCTV.BrowsingLaptop[4].tcpApp[0] 	rcvdPk:sum(packetBytes) 	24656446
attr interpolationmode  none
attr source  rcvdPk
attr title  "packets received, sum(packetBytes)"
statistic ExamTaskNetwork_no_CCTV.BrowsingLaptop[4].tcpApp[0] 	endToEndDelay:histogram
field count 33
field mean 12.926389753043
field stddev 11.579970453225
field sum 426.57086185041
field sqrsum 9805.0841198914
field min 0.712580600767
field max 56.898157450209
attr interpolationmode  none
attr source  messageAge(rcvdPk)
attr title  "end-to-end delay, histogram"
attr unit  s
bin	-INF	0
bin	-27.380207823954	0
bin	-23.634502700658	0
bin	-19.888797577362	0
bin	-16.143092454066	0
bin	-12.397387330769	0
bin	-8.6516822074733	0
bin	-4.9059770841772	0
bin	-1.1602719608811	4
bin	2.5854331624151	8
bin	6.3311382857112	4
bin	10.076843409007	4
bin	13.822548532303	6
bin	17.5682536556	1
bin	21.313958778896	1
bin	25.059663902192	3
bin	28.805369025488	0
bin	32.551074148784	1
bin	36.29677927208	0
bin	40.042484395376	0
bin	43.788189518673	0
bin	47.533894641969	0
bin	51.279599765265	0
bin	55.025304888561	1
bin	58.771010011857	0
bin	62.516715135153	0
bin	66.262420258449	0
bin	70.008125381745	0
bin	73.753830505042	0
bin	77.499535628338	0
bin	81.245240751634	0
bin	84.99094587493	0
scalar ExamTaskNetwork_no_CCTV.BrowsingLaptop[5].networkLayer.arp 	initiatedARPResolution:count 	8
attr title  "ARP initiated resolutions, count"
scalar ExamTaskNetwork_no_CCTV.BrowsingLaptop[5].networkLayer.arp 	sentReply:count 	1
attr title  "ARP replies sent, count"
scalar ExamTaskNetwork_no_CCTV.BrowsingLaptop[5].networkLayer.arp 	sentReq:count 	9
attr title  "ARP request sent, count"
scalar ExamTaskNetwork_no_CCTV.BrowsingLaptop[5].networkLayer.arp 	failedARPResolution:count 	0
attr title  "ARP failed resolutions, count"
scalar ExamTaskNetwork_no_CCTV.BrowsingLaptop[5].networkLayer.arp 	completedARPResolution:count 	13
attr title  "ARP completed resolutions, count"
scalar ExamTaskNetwork_no_CCTV.BrowsingLaptop[5].lo0.lo 	rcvdPkFromHL:count 	0
attr interpolationmode  none
attr source  packetReceivedFromUpper
attr title  "packets received from higher layer, count"
scalar ExamTaskNetwork_no_CCTV.BrowsingLaptop[5].lo0.lo 	rcvdPkFromHL:sum(packetBytes) 	0
attr interpolationmode  none
attr source  packetReceivedFromUpper
attr title  "packets received from higher layer, sum(packetBytes)"
scalar ExamTaskNetwork_no_CCTV.BrowsingLaptop[5].lo0.lo 	passedUpPk:count 	0
attr interpolationmode  none
attr source  packetSentToUpper
attr title  "packets passed to higher layer, count"
scalar ExamTaskNetwork_no_CCTV.BrowsingLaptop[5].lo0.lo 	passedUpPk:sum(packetBytes) 	0
attr interpolationmode  none
attr source  packetSentToUpper
attr title  "packets passed to higher layer, sum(packetBytes)"
scalar ExamTaskNetwork_no_CCTV.BrowsingLaptop[5].lo0.lo 	droppedPkBitError:count 	0
attr interpolationmode  none
attr source  dropPkBitError
attr title  "packets dropped/bit error, count"
scalar ExamTaskNetwork_no_CCTV.BrowsingLaptop[5].lo0.lo 	droppedPkBitError:sum(packetBytes) 	0
attr interpolationmode  none
attr source  dropPkBitError
attr title  "packets dropped/bit error, sum(packetBytes)"
scalar ExamTaskNetwork_no_CCTV.BrowsingLaptop[5].wlan[0].agent 	dropConfirm:count 	0
attr title  "dropped confirms, count"
scalar ExamTaskNetwork_no_CCTV.BrowsingLaptop[5].wlan[0].agent 	acceptConfirm:count 	42
attr title  "accepted confirms, count"
scalar ExamTaskNetwork_no_CCTV.BrowsingLaptop[5].wlan[0].agent 	sentRequest:count 	42
attr title  "sent requests, count"
scalar ExamTaskNetwork_no_CCTV.BrowsingLaptop[5].wlan[0].mgmt 	dropPkByQueue:count 	196
attr interpolationmode  none
attr source  dropPkByQueue
attr title  "packets dropped by queue, count"
scalar ExamTaskNetwork_no_CCTV.BrowsingLaptop[5].wlan[0].mgmt 	dropPkByQueue:sum(packetBytes) 	19196
attr interpolationmode  none
attr source  dropPkByQueue
attr title  "packets dropped by queue, sum(packetBytes)"
scalar ExamTaskNetwork_no_CCTV.BrowsingLaptop[5].wlan[0].mgmt 	dataQueueLen:max 	50
attr interpolationmode  sample-hold
attr title  "data queue length, max"
scalar ExamTaskNetwork_no_CCTV.BrowsingLaptop[5].wlan[0].mgmt 	dataQueueLen:timeavg 	0.017047135732905
attr interpolationmode  sample-hold
attr title  "data queue length, timeavg"
scalar ExamTaskNetwork_no_CCTV.BrowsingLaptop[5].wlan[0].mac 	"number of received packets" 	30747
scalar ExamTaskNetwork_no_CCTV.BrowsingLaptop[5].wlan[0].mac 	"number of collisions" 	51468
scalar ExamTaskNetwork_no_CCTV.BrowsingLaptop[5].wlan[0].mac 	"number of internal collisions" 	0
scalar ExamTaskNetwork_no_CCTV.BrowsingLaptop[5].wlan[0].mac 	"number of retry for AC 0" 	317
scalar ExamTaskNetwork_no_CCTV.BrowsingLaptop[5].wlan[0].mac 	"sent and received bits" 	12378416
scalar ExamTaskNetwork_no_CCTV.BrowsingLaptop[5].wlan[0].mac 	"sent packet within AC 0" 	15905
scalar ExamTaskNetwork_no_CCTV.BrowsingLaptop[5].wlan[0].mac 	"sent in TXOP " 	0
scalar ExamTaskNetwork_no_CCTV.BrowsingLaptop[5].wlan[0].mac 	"sentWithoutRetry AC 0" 	15637
scalar ExamTaskNetwork_no_CCTV.BrowsingLaptop[5].wlan[0].mac 	"numGivenUp AC 0" 	0
scalar ExamTaskNetwork_no_CCTV.BrowsingLaptop[5].wlan[0].mac 	"numDropped AC 0" 	0
scalar ExamTaskNetwork_no_CCTV.BrowsingLaptop[5].wlan[0].mac 	rcvdPkFromHL:count 	15919
attr interpolationmode  none
attr source  packetReceivedFromUpper
attr title  "packets received from higher layer, count"
scalar ExamTaskNetwork_no_CCTV.BrowsingLaptop[5].wlan[0].mac 	rcvdPkFromHL:sum(packetBytes) 	1547302
attr interpolationmode  none
attr source  packetReceivedFromUpper
attr title  "packets received from higher layer, sum(packetBytes)"
scalar ExamTaskNetwork_no_CCTV.BrowsingLaptop[5].wlan[0].mac 	passedUpPk:count 	40125
attr interpolationmode  none
attr source  packetSentToUpper
attr title  "packets passed to higher layer, count"
scalar ExamTaskNetwork_no_CCTV.BrowsingLaptop[5].wlan[0].mac 	passedUpPk:sum(packetBytes) 	26109248
attr interpolationmode  none
attr source  packetSentToUpper
attr title  "packets passed to higher layer, sum(packetBytes)"
scalar ExamTaskNetwork_no_CCTV.BrowsingLaptop[5].wlan[0].mac 	rcvdPkFromLL:count 	3518162
attr interpolationmode  none
attr source  packetReceivedFromLower
attr title  "packets received from lower layer, count"
scalar ExamTaskNetwork_no_CCTV.BrowsingLaptop[5].wlan[0].mac 	rcvdPkFromLL:sum(packetBytes) 	1389142040
attr interpolationmode  none
attr source  packetReceivedFromLower
attr title  "packets received from lower layer, sum(packetBytes)"
scalar ExamTaskNetwork_no_CCTV.BrowsingLaptop[5].wlan[0].mac 	sentDownPk:count 	46983
attr interpolationmode  none
attr source  packetSentToLower
attr title  "packets sent to lower layer, count"
scalar ExamTaskNetwork_no_CCTV.BrowsingLaptop[5].wlan[0].mac 	sentDownPk:sum(packetBytes) 	2044738
attr interpolationmode  none
attr source  packetSentToLower
attr title  "packets sent to lower layer, sum(packetBytes)"
scalar ExamTaskNetwork_no_CCTV.BrowsingLaptop[5].wlan[0].radio 	lossRate:min 	0
attr interpolationmode  backward-sample-hold
attr title  "packet loss rate, min"
scalar ExamTaskNetwork_no_CCTV.BrowsingLaptop[5].wlan[0].radio 	lossRate:max 	0.2
attr interpolationmode  backward-sample-hold
attr title  "packet loss rate, max"
scalar ExamTaskNetwork_no_CCTV.BrowsingLaptop[5].wlan[0].radio 	lossRate:timeavg 	0.014024385323858
attr interpolationmode  backward-sample-hold
attr title  "packet loss rate, timeavg"
statistic ExamTaskNetwork_no_CCTV.BrowsingLaptop[5].wlan[0].radio 	channelNo:histogram
field count 1
field mean 0
field stddev -nan
field sum 0
field sqrsum 0
field min 0
field max 0
attr interpolationmode  sample-hold
attr title  "channel no, histogram"
bin	-INF	0
bin	-0.5	0
bin	-0.46666666666667	0
bin	-0.43333333333333	0
bin	-0.4	0
bin	-0.36666666666667	0
bin	-0.33333333333333	0
bin	-0.3	0
bin	-0.26666666666667	0
bin	-0.23333333333333	0
bin	-0.2	0
bin	-0.16666666666667	0
bin	-0.13333333333333	0
bin	-0.1	0
bin	-0.066666666666667	0
bin	-0.033333333333333	0
bin	0	1
bin	0.033333333333333	0
bin	0.066666666666667	0
bin	0.1	0
bin	0.13333333333333	0
bin	0.16666666666667	0
bin	0.2	0
bin	0.23333333333333	0
bin	0.26666666666667	0
bin	0.3	0
bin	0.33333333333333	0
bin	0.36666666666667	0
bin	0.4	0
bin	0.43333333333333	0
bin	0.46666666666667	0
bin	0.5	0
scalar ExamTaskNetwork_no_CCTV.BrowsingLaptop[5].wlan[0].radio 	radioState:count 	7130690
attr interpolationmode  sample-hold
attr title  "radio state (enum), count"
scalar ExamTaskNetwork_no_CCTV.BrowsingLaptop[5].wlan[0].radio 	bitrate:min 	54000000
attr interpolationmode  sample-hold
attr title  "tx bitrate, min"
attr unit  bps
scalar ExamTaskNetwork_no_CCTV.BrowsingLaptop[5].wlan[0].radio 	bitrate:max 	54000000
attr interpolationmode  sample-hold
attr title  "tx bitrate, max"
attr unit  bps
scalar ExamTaskNetwork_no_CCTV.BrowsingLaptop[5].wlan[0].radio 	bitrate:timeavg 	54000000
attr interpolationmode  sample-hold
attr title  "tx bitrate, timeavg"
attr unit  bps
scalar ExamTaskNetwork_no_CCTV.BrowsingLaptop[5].tcpApp[0] 	numActiveSessions:max 	1
attr interpolationmode  sample-hold
attr source  sum(connect)
attr title  "number of active sessions, max"
scalar ExamTaskNetwork_no_CCTV.BrowsingLaptop[5].tcpApp[0] 	numActiveSessions:timeavg 	0.39872432474301
attr interpolationmode  sample-hold
attr source  sum(connect)
attr title  "number of active sessions, timeavg"
scalar ExamTaskNetwork_no_CCTV.BrowsingLaptop[5].tcpApp[0] 	numSessions:last 	28
attr source  sum(connect+1)/2
attr title  "total number of sessions, last"
scalar ExamTaskNetwork_no_CCTV.BrowsingLaptop[5].tcpApp[0] 	sentPk:count 	28
attr interpolationmode  none
attr source  sentPk
attr title  "packets sent, count"
scalar ExamTaskNetwork_no_CCTV.BrowsingLaptop[5].tcpApp[0] 	sentPk:sum(packetBytes) 	229376
attr interpolationmode  none
attr source  sentPk
attr title  "packets sent, sum(packetBytes)"
scalar ExamTaskNetwork_no_CCTV.BrowsingLaptop[5].tcpApp[0] 	rcvdPk:count 	27
attr interpolationmode  none
attr source  rcvdPk
attr title  "packets received, count"
scalar ExamTaskNetwork_no_CCTV.BrowsingLaptop[5].tcpApp[0] 	rcvdPk:sum(packetBytes) 	19761622
attr interpolationmode  none
attr source  rcvdPk
attr title  "packets received, sum(packetBytes)"
statistic ExamTaskNetwork_no_CCTV.BrowsingLaptop[5].tcpApp[0] 	endToEndDelay:histogram
field count 27
field mean 14.228001923043
field stddev 9.8295579735761
field sum 384.15605192215
field sqrsum 7977.89850435
field min 0.575984486539
field max 45.025010115173
attr interpolationmode  none
attr source  messageAge(rcvdPk)
attr title  "end-to-end delay, histogram"
attr unit  s
bin	-INF	0
bin	-21.648528327778	0
bin	-18.685259952536	0
bin	-15.721991577293	0
bin	-12.758723202051	0
bin	-9.7954548268089	0
bin	-6.8321864515667	0
bin	-3.8689180763244	0
bin	-0.90564970108213	2
bin	2.0576186741601	3
bin	5.0208870494024	2
bin	7.9841554246447	5
bin	10.947423799887	3
bin	13.910692175129	4
bin	16.873960550371	0
bin	19.837228925614	2
bin	22.800497300856	4
[...]
scalar ExamTaskNetwork_no_CCTV.MainRouter.eth[1].mac 	"frames/sec rcvd" 	24.97999982107
scalar ExamTaskNetwork_no_CCTV.MainRouter.eth[1].mac 	"bits/sec sent" 	287195.86994283
scalar ExamTaskNetwork_no_CCTV.MainRouter.eth[1].mac 	"bits/sec rcvd" 	288780.68593148
scalar ExamTaskNetwork_no_CCTV.MainRouter.eth[1].mac 	"rx channel idle (%)" 	99.70962059408
scalar ExamTaskNetwork_no_CCTV.MainRouter.eth[1].mac 	"rx channel utilization (%)" 	0.29037940592003
scalar ExamTaskNetwork_no_CCTV.MainRouter.eth[1].mac 	rxPkFromHL:count 	24843
attr interpolationmode  none
attr source  rxPkFromHL
attr title  "packet bytes from higher layer, count"
scalar ExamTaskNetwork_no_CCTV.MainRouter.eth[1].mac 	rxPkFromHL:sum(packetBytes) 	35899484
attr interpolationmode  none
attr source  rxPkFromHL
attr title  "packet bytes from higher layer, sum(packetBytes)"
scalar ExamTaskNetwork_no_CCTV.MainRouter.eth[1].mac 	rxPausePkUnits:count 	0
attr interpolationmode  none
attr title  "pause units received, count"
scalar ExamTaskNetwork_no_CCTV.MainRouter.eth[1].mac 	rxPausePkUnits:sum 	0
attr interpolationmode  none
attr title  "pause units received, sum"
scalar ExamTaskNetwork_no_CCTV.MainRouter.eth[1].mac 	txPausePkUnits:count 	0
attr interpolationmode  none
attr title  "pause units sent, count"
scalar ExamTaskNetwork_no_CCTV.MainRouter.eth[1].mac 	txPausePkUnits:sum 	0
attr interpolationmode  none
attr title  "pause units sent, sum"
scalar ExamTaskNetwork_no_CCTV.MainRouter.eth[1].mac 	txPk:count 	24843
attr interpolationmode  none
attr source  txPk
attr title  "packets transmitted, count"
scalar ExamTaskNetwork_no_CCTV.MainRouter.eth[1].mac 	txPk:sum(packetBytes) 	35899484
attr interpolationmode  none
attr source  txPk
attr title  "packets transmitted, sum(packetBytes)"
scalar ExamTaskNetwork_no_CCTV.MainRouter.eth[1].mac 	droppedPkNotForUs:count 	0
attr interpolationmode  none
attr source  dropPkNotForUs
attr title  "packets dropped/not for us, count"
scalar ExamTaskNetwork_no_CCTV.MainRouter.eth[1].mac 	droppedPkNotForUs:sum(packetBytes) 	0
attr interpolationmode  none
attr source  dropPkNotForUs
attr title  "packets dropped/not for us, sum(packetBytes)"
scalar ExamTaskNetwork_no_CCTV.MainRouter.eth[1].mac 	passedUpPk:count 	24980
attr interpolationmode  none
attr source  packetSentToUpper
attr title  "packets passed to higher layer, count"
scalar ExamTaskNetwork_no_CCTV.MainRouter.eth[1].mac 	passedUpPk:sum(packetBytes) 	36097586
attr interpolationmode  none
attr source  packetSentToUpper
attr title  "packets passed to higher layer, sum(packetBytes)"
scalar ExamTaskNetwork_no_CCTV.MainRouter.eth[1].mac 	droppedPkBitError:count 	0
attr interpolationmode  none
attr source  dropPkBitError
attr title  "packets dropped/bit error, count"
scalar ExamTaskNetwork_no_CCTV.MainRouter.eth[1].mac 	droppedPkBitError:sum(packetBytes) 	0
attr interpolationmode  none
attr source  dropPkBitError
attr title  "packets dropped/bit error, sum(packetBytes)"
scalar ExamTaskNetwork_no_CCTV.MainRouter.eth[1].mac 	droppedPkIfaceDown:count 	0
attr interpolationmode  none
attr source  dropPkIfaceDown
attr title  "packets dropped/interface down, count"
scalar ExamTaskNetwork_no_CCTV.MainRouter.eth[1].mac 	droppedPkIfaceDown:sum(packetBytes) 	0
attr interpolationmode  none
attr source  dropPkIfaceDown
attr title  "packets dropped/interface down, sum(packetBytes)"
scalar ExamTaskNetwork_no_CCTV.MainRouter.eth[1].mac 	rxPkOk:count 	24980
attr interpolationmode  none
attr source  rxPkOk
attr title  "packets received OK, count"
scalar ExamTaskNetwork_no_CCTV.MainRouter.eth[1].mac 	rxPkOk:sum(packetBytes) 	36097586
attr interpolationmode  none
attr source  rxPkOk
attr title  "packets received OK, sum(packetBytes)"
scalar ExamTaskNetwork_no_CCTV.MainRouter.eth[1].encap 	pauseSent:count 	0
attr title  "pause sent, count"
scalar ExamTaskNetwork_no_CCTV.MainRouter.eth[1].encap 	pauseSent:sum 	0
attr title  "pause sent, sum"
scalar ExamTaskNetwork_no_CCTV.MainRouter.eth[1].encap 	decapPk:count 	24980
attr interpolationmode  none
attr source  decapPk
attr title  "packets decapsulated, count"
scalar ExamTaskNetwork_no_CCTV.MainRouter.eth[1].encap 	decapPk:sum(packetBytes) 	35647640
attr interpolationmode  none
attr source  decapPk
attr title  "packets decapsulated, sum(packetBytes)"
scalar ExamTaskNetwork_no_CCTV.MainRouter.eth[1].encap 	encapPk:count 	24843
attr interpolationmode  none
attr source  encapPk
attr title  "packets encapsulated, count"
scalar ExamTaskNetwork_no_CCTV.MainRouter.eth[1].encap 	encapPk:sum(packetBytes) 	35452004
attr interpolationmode  none
attr source  encapPk
attr title  "packets encapsulated, sum(packetBytes)"
scalar ExamTaskNetwork_no_CCTV.MainRouter.ppp[0].outputHook[0] 	duration 	1000.0000071629
scalar ExamTaskNetwork_no_CCTV.MainRouter.ppp[0].outputHook[0] 	"total packets" 	1055082
scalar ExamTaskNetwork_no_CCTV.MainRouter.ppp[0].outputHook[0] 	"total bits" 	3845749064
scalar ExamTaskNetwork_no_CCTV.MainRouter.ppp[0].outputHook[0] 	"avg throughput (bit/s)" 	3845749.0364531
scalar ExamTaskNetwork_no_CCTV.MainRouter.ppp[0].outputHook[0] 	"avg packets/s" 	1055.0819924425
scalar ExamTaskNetwork_no_CCTV.MainRouter.ppp[0].inputHook[0] 	duration 	1000.0000071629
scalar ExamTaskNetwork_no_CCTV.MainRouter.ppp[0].inputHook[0] 	"total packets" 	745513
scalar ExamTaskNetwork_no_CCTV.MainRouter.ppp[0].inputHook[0] 	"total bits" 	6026859152
scalar ExamTaskNetwork_no_CCTV.MainRouter.ppp[0].inputHook[0] 	"avg throughput (bit/s)" 	6026859.10883
scalar ExamTaskNetwork_no_CCTV.MainRouter.ppp[0].inputHook[0] 	"avg packets/s" 	745.51299465994
statistic ExamTaskNetwork_no_CCTV.MainRouter.ppp[0].queue 	queueingTime:histogram
field count 1015962
field mean 0.00091811706633567
field stddev 0.0030488297891631
field sum 932.77205094852
field sqrsum 10.300120312437
field min 0
field max 0.038430051746
attr interpolationmode  none
attr title  "queueing time, histogram"
bin	-INF	0
bin	-0.000724973333	0
bin	-0.00062831022193333	0
bin	-0.00053164711086667	0
bin	-0.0004349839998	0
bin	-0.00033832088873333	0
bin	-0.00024165777766667	0
bin	-0.0001449946666	0
bin	-4.8331555533333e-05	617404
bin	4.8331555533333e-05	10501
bin	0.0001449946666	7211
bin	0.00024165777766667	5678
bin	0.00033832088873333	4691
bin	0.0004349839998	4336
bin	0.00053164711086667	8174
bin	0.00062831022193333	6367
bin	0.000724973333	4697
bin	0.00082163644406667	34502
bin	0.00091829955513333	166450
bin	0.0010149626662	5578
bin	0.0011116257772667	6852
bin	0.0012082888883333	4708
bin	0.0013049519994	2575
bin	0.0014016151104667	3380
bin	0.0014982782215333	6742
bin	0.0015949413326	7095
bin	0.0016916044436667	2499
bin	0.0017882675547333	3753
bin	0.0018849306658	33184
bin	0.0019815937768667	2098
bin	0.0020782568879333	2617
bin	0.002174919999	64870
scalar ExamTaskNetwork_no_CCTV.MainRouter.ppp[0].queue 	dropPk:count 	39120
attr interpolationmode  none
attr source  dropPkByQueue
attr title  "dropped packets, count"
scalar ExamTaskNetwork_no_CCTV.MainRouter.ppp[0].queue 	dropPk:sum(packetBytes) 	27980782
attr interpolationmode  none
attr source  dropPkByQueue
attr title  "dropped packets, sum(packetBytes)"
scalar ExamTaskNetwork_no_CCTV.MainRouter.ppp[0].queue 	queueLength:max 	50
attr interpolationmode  sample-hold
attr title  "queue length, max"
scalar ExamTaskNetwork_no_CCTV.MainRouter.ppp[0].queue 	queueLength:timeavg 	0.93277204426762
attr interpolationmode  sample-hold
attr title  "queue length, timeavg"
scalar ExamTaskNetwork_no_CCTV.MainRouter.ppp[0].queue 	rcvdPk:count 	1055082
attr interpolationmode  none
attr title  "received packets, count"
scalar ExamTaskNetwork_no_CCTV.MainRouter.ppp[0].queue 	rcvdPk:sum(packetBytes) 	480718633
attr interpolationmode  none
attr title  "received packets, sum(packetBytes)"
scalar ExamTaskNetwork_no_CCTV.MainRouter.ppp[0].ppp 	rcvdPkFromHL:count 	1015962
attr interpolationmode  none
attr source  packetReceivedFromUpper
attr title  "packets received from higher layer, count"
scalar ExamTaskNetwork_no_CCTV.MainRouter.ppp[0].ppp 	rcvdPkFromHL:sum(packetBytes) 	452737851
attr interpolationmode  none
attr source  packetReceivedFromUpper
attr title  "packets received from higher layer, sum(packetBytes)"
scalar ExamTaskNetwork_no_CCTV.MainRouter.ppp[0].ppp 	passedUpPk:count 	745513
attr interpolationmode  none
attr source  packetSentToUpper
attr title  "packets passed to higher layer, count"
scalar ExamTaskNetwork_no_CCTV.MainRouter.ppp[0].ppp 	passedUpPk:sum(packetBytes) 	753357394
attr interpolationmode  none
attr source  packetSentToUpper
attr title  "packets passed to higher layer, sum(packetBytes)"
scalar ExamTaskNetwork_no_CCTV.MainRouter.ppp[0].ppp 	txPk:count 	1015962
attr interpolationmode  none
attr source  packetSentToLower
attr title  "packets transmitted, count"
scalar ExamTaskNetwork_no_CCTV.MainRouter.ppp[0].ppp 	txPk:sum(packetBytes) 	459849585
attr interpolationmode  none
attr source  packetSentToLower
attr title  "packets transmitted, sum(packetBytes)"
scalar ExamTaskNetwork_no_CCTV.MainRouter.ppp[0].ppp 	droppedPkBitError:count 	0
attr interpolationmode  none
attr source  dropPkBitError
attr title  "packets dropped/bit error, count"
scalar ExamTaskNetwork_no_CCTV.MainRouter.ppp[0].ppp 	droppedPkBitError:sum(packetBytes) 	0
attr interpolationmode  none
attr source  dropPkBitError
attr title  "packets dropped/bit error, sum(packetBytes)"
scalar ExamTaskNetwork_no_CCTV.MainRouter.ppp[0].ppp 	droppedPkIfaceDown:count 	0
attr interpolationmode  none
attr source  dropPkIfaceDown
attr title  "packets dropped/interface down, count"
scalar ExamTaskNetwork_no_CCTV.MainRouter.ppp[0].ppp 	droppedPkIfaceDown:sum(packetBytes) 	0
attr interpolationmode  none
attr source  dropPkIfaceDown
attr title  "packets dropped/interface down, sum(packetBytes)"
scalar ExamTaskNetwork_no_CCTV.MainRouter.ppp[0].ppp 	rxPkOk:count 	745513
attr interpolationmode  none
attr source  rxPkOk
attr title  "packets received OK, count"
scalar ExamTaskNetwork_no_CCTV.MainRouter.ppp[0].ppp 	rxPkOk:sum(packetBytes) 	758575985
attr interpolationmode  none
attr source  rxPkOk
attr title  "packets received OK, sum(packetBytes)"
scalar ExamTaskNetwork_no_CCTV.MainRouter.ppp[0].ppp 	txState:timeavg 	0.30656638745902
attr interpolationmode  sample-hold
attr title  "tx state, timeavg"
scalar ExamTaskNetwork_no_CCTV.Internet.networkLayer.arp 	initiatedARPResolution:count 	127
attr title  "ARP initiated resolutions, count"
scalar ExamTaskNetwork_no_CCTV.Internet.networkLayer.arp 	sentReply:count 	2
attr title  "ARP replies sent, count"
scalar ExamTaskNetwork_no_CCTV.Internet.networkLayer.arp 	sentReq:count 	127
attr title  "ARP request sent, count"
scalar ExamTaskNetwork_no_CCTV.Internet.networkLayer.arp 	failedARPResolution:count 	0
attr title  "ARP failed resolutions, count"
scalar ExamTaskNetwork_no_CCTV.Internet.networkLayer.arp 	completedARPResolution:count 	129
attr title  "ARP completed resolutions, count"
scalar ExamTaskNetwork_no_CCTV.Internet.lo0.lo 	rcvdPkFromHL:count 	0
attr interpolationmode  none
attr source  packetReceivedFromUpper
attr title  "packets received from higher layer, count"
scalar ExamTaskNetwork_no_CCTV.Internet.lo0.lo 	rcvdPkFromHL:sum(packetBytes) 	0
attr interpolationmode  none
attr source  packetReceivedFromUpper
attr title  "packets received from higher layer, sum(packetBytes)"
scalar ExamTaskNetwork_no_CCTV.Internet.lo0.lo 	passedUpPk:count 	0
attr interpolationmode  none
attr source  packetSentToUpper
attr title  "packets passed to higher layer, count"
scalar ExamTaskNetwork_no_CCTV.Internet.lo0.lo 	passedUpPk:sum(packetBytes) 	0
attr interpolationmode  none
attr source  packetSentToUpper
attr title  "packets passed to higher layer, sum(packetBytes)"
scalar ExamTaskNetwork_no_CCTV.Internet.lo0.lo 	droppedPkBitError:count 	0
attr interpolationmode  none
attr source  dropPkBitError
attr title  "packets dropped/bit error, count"
scalar ExamTaskNetwork_no_CCTV.Internet.lo0.lo 	droppedPkBitError:sum(packetBytes) 	0
attr interpolationmode  none
attr source  dropPkBitError
attr title  "packets dropped/bit error, sum(packetBytes)"
scalar ExamTaskNetwork_no_CCTV.Internet.eth[0].mac 	"simulated time" 	1000.0000071629
scalar ExamTaskNetwork_no_CCTV.Internet.eth[0].mac 	full-duplex 	1
scalar ExamTaskNetwork_no_CCTV.Internet.eth[0].mac 	"frames/sec sent" 	1030.2749926202
scalar ExamTaskNetwork_no_CCTV.Internet.eth[0].mac 	"frames/sec rcvd" 	1190.4129914731
scalar ExamTaskNetwork_no_CCTV.Internet.eth[0].mac 	"bits/sec sent" 	3776078.8049522
scalar ExamTaskNetwork_no_CCTV.Internet.eth[0].mac 	"bits/sec rcvd" 	6076547.5404741
scalar ExamTaskNetwork_no_CCTV.Internet.eth[0].mac 	"rx channel idle (%)" 	93.847266028072
scalar ExamTaskNetwork_no_CCTV.Internet.eth[0].mac 	"rx channel utilization (%)" 	6.1527339719278
scalar ExamTaskNetwork_no_CCTV.Internet.eth[0].mac 	rxPkFromHL:count 	1030275
attr interpolationmode  none
attr source  rxPkFromHL
attr title  "packet bytes from higher layer, count"
scalar ExamTaskNetwork_no_CCTV.Internet.eth[0].mac 	rxPkFromHL:sum(packetBytes) 	472009854
attr interpolationmode  none
attr source  rxPkFromHL
attr title  "packet bytes from higher layer, sum(packetBytes)"
scalar ExamTaskNetwork_no_CCTV.Internet.eth[0].mac 	rxPausePkUnits:count 	0
attr interpolationmode  none
attr title  "pause units received, count"
scalar ExamTaskNetwork_no_CCTV.Internet.eth[0].mac 	rxPausePkUnits:sum 	0
attr interpolationmode  none
attr title  "pause units received, sum"
scalar ExamTaskNetwork_no_CCTV.Internet.eth[0].mac 	txPausePkUnits:count 	0
attr interpolationmode  none
attr title  "pause units sent, count"
scalar ExamTaskNetwork_no_CCTV.Internet.eth[0].mac 	txPausePkUnits:sum 	0
attr interpolationmode  none
attr title  "pause units sent, sum"
scalar ExamTaskNetwork_no_CCTV.Internet.eth[0].mac 	txPk:count 	1030275
attr interpolationmode  none
attr source  txPk
attr title  "packets transmitted, count"
scalar ExamTaskNetwork_no_CCTV.Internet.eth[0].mac 	txPk:sum(packetBytes) 	472009854
attr interpolationmode  none
attr source  txPk
attr title  "packets transmitted, sum(packetBytes)"
scalar ExamTaskNetwork_no_CCTV.Internet.eth[0].mac 	droppedPkNotForUs:count 	0
attr interpolationmode  none
attr source  dropPkNotForUs
attr title  "packets dropped/not for us, count"
scalar ExamTaskNetwork_no_CCTV.Internet.eth[0].mac 	droppedPkNotForUs:sum(packetBytes) 	0
attr interpolationmode  none
attr source  dropPkNotForUs
attr title  "packets dropped/not for us, sum(packetBytes)"
scalar ExamTaskNetwork_no_CCTV.Internet.eth[0].mac 	passedUpPk:count 	1190413
attr interpolationmode  none
attr source  packetSentToUpper
attr title  "packets passed to higher layer, count"
scalar ExamTaskNetwork_no_CCTV.Internet.eth[0].mac 	passedUpPk:sum(packetBytes) 	759568448
attr interpolationmode  none
attr source  packetSentToUpper
attr title  "packets passed to higher layer, sum(packetBytes)"
scalar ExamTaskNetwork_no_CCTV.Internet.eth[0].mac 	droppedPkBitError:count 	0
attr interpolationmode  none
attr source  dropPkBitError
attr title  "packets dropped/bit error, count"
scalar ExamTaskNetwork_no_CCTV.Internet.eth[0].mac 	droppedPkBitError:sum(packetBytes) 	0
attr interpolationmode  none
attr source  dropPkBitError
attr title  "packets dropped/bit error, sum(packetBytes)"
scalar ExamTaskNetwork_no_CCTV.Internet.eth[0].mac 	droppedPkIfaceDown:count 	0
attr interpolationmode  none
attr source  dropPkIfaceDown
attr title  "packets dropped/interface down, count"
scalar ExamTaskNetwork_no_CCTV.Internet.eth[0].mac 	droppedPkIfaceDown:sum(packetBytes) 	0
attr interpolationmode  none
attr source  dropPkIfaceDown
attr title  "packets dropped/interface down, sum(packetBytes)"
scalar ExamTaskNetwork_no_CCTV.Internet.eth[0].mac 	rxPkOk:count 	1190413
attr interpolationmode  none
attr source  rxPkOk
attr title  "packets received OK, count"
scalar ExamTaskNetwork_no_CCTV.Internet.eth[0].mac 	rxPkOk:sum(packetBytes) 	759568448
attr interpolationmode  none
attr source  rxPkOk
attr title  "packets received OK, sum(packetBytes)"
scalar ExamTaskNetwork_no_CCTV.Internet.eth[0].encap 	pauseSent:count 	0
attr title  "pause sent, count"
scalar ExamTaskNetwork_no_CCTV.Internet.eth[0].encap 	pauseSent:sum 	0
attr title  "pause sent, sum"
scalar ExamTaskNetwork_no_CCTV.Internet.eth[0].encap 	decapPk:count 	1190413
attr interpolationmode  none
attr source  decapPk
attr title  "packets decapsulated, count"
scalar ExamTaskNetwork_no_CCTV.Internet.eth[0].encap 	decapPk:sum(packetBytes) 	727279028
attr interpolationmode  none
attr source  decapPk
attr title  "packets decapsulated, sum(packetBytes)"
scalar ExamTaskNetwork_no_CCTV.Internet.eth[0].encap 	encapPk:count 	1030275
attr interpolationmode  none
attr source  encapPk
attr title  "packets encapsulated, count"
scalar ExamTaskNetwork_no_CCTV.Internet.eth[0].encap 	encapPk:sum(packetBytes) 	445083391
attr interpolationmode  none
attr source  encapPk
attr title  "packets encapsulated, sum(packetBytes)"
scalar ExamTaskNetwork_no_CCTV.Internet.tcpApp[0] 	sentPk:count 	472
attr interpolationmode  none
attr source  sentPk
attr title  "packets sent, count"
scalar ExamTaskNetwork_no_CCTV.Internet.tcpApp[0] 	sentPk:sum(packetBytes) 	348218082
attr interpolationmode  none
attr source  sentPk
attr title  "packets sent, sum(packetBytes)"
scalar ExamTaskNetwork_no_CCTV.Internet.tcpApp[0] 	rcvdPk:count 	472
attr interpolationmode  none
attr source  rcvdPk
attr title  "packets received, count"
scalar ExamTaskNetwork_no_CCTV.Internet.tcpApp[0] 	rcvdPk:sum(packetBytes) 	3866624
attr interpolationmode  none
attr source  rcvdPk
attr title  "packets received, sum(packetBytes)"
statistic ExamTaskNetwork_no_CCTV.Internet.tcpApp[0] 	endToEndDelay:histogram
field count 472
field mean 0.331437907877
field stddev 0.56834720730198
field sum 156.43869251794
field sqrsum 203.99144908975
field min 0.207754024229
field max 8.52535983696
attr interpolationmode  none
attr source  messageAge(rcvdPk)
attr title  "end-to-end delay, histogram"
attr unit  s
bin	-INF	0
bin	-1.181129568059	0
bin	-0.99593908908727	0
bin	-0.81074861011553	0
bin	-0.6255581311438	0
bin	-0.44036765217207	0
bin	-0.25517717320033	0
bin	-0.0699866942286	0
bin	0.11520378474313	425
bin	0.30039426371487	36
bin	0.4855847426866	0
bin	0.67077522165833	0
bin	0.85596570063007	0
bin	1.0411561796018	0
bin	1.2263466585735	0
bin	1.4115371375453	0
bin	1.596727616517	0
bin	1.7819180954887	0
bin	1.9671085744605	0
bin	2.1522990534322	0
bin	2.3374895324039	0
bin	2.5226800113757	0
bin	2.7078704903474	0
bin	2.8930609693191	2
bin	3.0782514482909	5
bin	3.2634419272626	3
bin	3.4486324062343	0
bin	3.6338228852061	0
bin	3.8190133641778	0
bin	4.0042038431495	0
bin	4.1893943221213	0
bin	4.374584801093	1
scalar ExamTaskNetwork_no_CCTV.Internet.tcpApp[1] 	rcvdPk:count 	0
attr interpolationmode  none
attr source  rcvdPk
attr title  "packets received, count"
scalar ExamTaskNetwork_no_CCTV.Internet.tcpApp[1] 	rcvdPk:sum(packetBytes) 	0
attr interpolationmode  none
attr source  rcvdPk
attr title  "packets received, sum(packetBytes)"
statistic ExamTaskNetwork_no_CCTV.Internet.tcpApp[1] 	endToEndDelay:histogram
field count 0
field mean -nan
field stddev -nan
field sum 0
field sqrsum 0
field min -nan
field max -nan
attr interpolationmode  none
attr source  messageAge(rcvdPk)
attr title  "end-to-end delay, histogram"
attr unit  s
bin	-INF	0
bin	-0.5	0
bin	-0.46666666666667	0
bin	-0.43333333333333	0
bin	-0.4	0
bin	-0.36666666666667	0
bin	-0.33333333333333	0
bin	-0.3	0
bin	-0.26666666666667	0
bin	-0.23333333333333	0
bin	-0.2	0
bin	-0.16666666666667	0
bin	-0.13333333333333	0
bin	-0.1	0
bin	-0.066666666666667	0
bin	-0.033333333333333	0
bin	0	0
bin	0.033333333333333	0
bin	0.066666666666667	0
bin	0.1	0
bin	0.13333333333333	0
bin	0.16666666666667	0
bin	0.2	0
bin	0.23333333333333	0
bin	0.26666666666667	0
bin	0.3	0
bin	0.33333333333333	0
bin	0.36666666666667	0
bin	0.4	0
bin	0.43333333333333	0
bin	0.46666666666667	0
bin	0.5	0
