version 2
run ExamTaskNetwork_no_CCTV-86-20160820-00:11:05-5896
attr configname ExamTaskNetwork_no_CCTV
attr datetime 20160820-00:11:05
attr experiment ExamTaskNetwork_no_CCTV
attr inifile omnetpp.ini
attr iterationvars "$simtime=1000, $0=30"
attr iterationvars2 "$simtime=1000, $0=30, $repetition=11"
attr measurement "$simtime=1000, $0=30"
attr network ExamTaskNetwork_no_CCTV
attr processid 5896
attr repetition 11
attr replication #11
attr resultdir /utmnt/ut/si/siah1097
attr runnumber 86
attr seedset 86
attr simtime 1000

scalar . 	simtime 	1000
scalar ExamTaskNetwork_no_CCTV.ConferenceLaptop.networkLayer.arp 	initiatedARPResolution:count 	9
attr title  "ARP initiated resolutions, count"
scalar ExamTaskNetwork_no_CCTV.ConferenceLaptop.networkLayer.arp 	sentReply:count 	7
attr title  "ARP replies sent, count"
scalar ExamTaskNetwork_no_CCTV.ConferenceLaptop.networkLayer.arp 	sentReq:count 	11
attr title  "ARP request sent, count"
scalar ExamTaskNetwork_no_CCTV.ConferenceLaptop.networkLayer.arp 	failedARPResolution:count 	0
attr title  "ARP failed resolutions, count"
scalar ExamTaskNetwork_no_CCTV.ConferenceLaptop.networkLayer.arp 	completedARPResolution:count 	132
attr title  "ARP completed resolutions, count"
scalar ExamTaskNetwork_no_CCTV.ConferenceLaptop.lo0.lo 	rcvdPkFromHL:count 	0
attr interpolationmode  none
attr source  packetReceivedFromUpper
attr title  "packets received from higher layer, count"
scalar ExamTaskNetwork_no_CCTV.ConferenceLaptop.lo0.lo 	rcvdPkFromHL:sum(packetBytes) 	0
attr interpolationmode  none
attr source  packetReceivedFromUpper
attr title  "packets received from higher layer, sum(packetBytes)"
scalar ExamTaskNetwork_no_CCTV.ConferenceLaptop.lo0.lo 	passedUpPk:count 	0
attr interpolationmode  none
attr source  packetSentToUpper
attr title  "packets passed to higher layer, count"
scalar ExamTaskNetwork_no_CCTV.ConferenceLaptop.lo0.lo 	passedUpPk:sum(packetBytes) 	0
attr interpolationmode  none
attr source  packetSentToUpper
attr title  "packets passed to higher layer, sum(packetBytes)"
scalar ExamTaskNetwork_no_CCTV.ConferenceLaptop.lo0.lo 	droppedPkBitError:count 	0
attr interpolationmode  none
attr source  dropPkBitError
attr title  "packets dropped/bit error, count"
scalar ExamTaskNetwork_no_CCTV.ConferenceLaptop.lo0.lo 	droppedPkBitError:sum(packetBytes) 	0
attr interpolationmode  none
attr source  dropPkBitError
attr title  "packets dropped/bit error, sum(packetBytes)"
scalar ExamTaskNetwork_no_CCTV.ConferenceLaptop.wlan[0].agent 	dropConfirm:count 	0
attr title  "dropped confirms, count"
scalar ExamTaskNetwork_no_CCTV.ConferenceLaptop.wlan[0].agent 	acceptConfirm:count 	36
attr title  "accepted confirms, count"
scalar ExamTaskNetwork_no_CCTV.ConferenceLaptop.wlan[0].agent 	sentRequest:count 	36
attr title  "sent requests, count"
scalar ExamTaskNetwork_no_CCTV.ConferenceLaptop.wlan[0].mgmt 	dropPkByQueue:count 	0
attr interpolationmode  none
attr source  dropPkByQueue
attr title  "packets dropped by queue, count"
scalar ExamTaskNetwork_no_CCTV.ConferenceLaptop.wlan[0].mgmt 	dropPkByQueue:sum(packetBytes) 	0
attr interpolationmode  none
attr source  dropPkByQueue
attr title  "packets dropped by queue, sum(packetBytes)"
scalar ExamTaskNetwork_no_CCTV.ConferenceLaptop.wlan[0].mgmt 	dataQueueLen:max 	49
attr interpolationmode  sample-hold
attr title  "data queue length, max"
scalar ExamTaskNetwork_no_CCTV.ConferenceLaptop.wlan[0].mgmt 	dataQueueLen:timeavg 	0.0031824758190971
attr interpolationmode  sample-hold
attr title  "data queue length, timeavg"
scalar ExamTaskNetwork_no_CCTV.ConferenceLaptop.wlan[0].mac 	"number of received packets" 	24535
scalar ExamTaskNetwork_no_CCTV.ConferenceLaptop.wlan[0].mac 	"number of collisions" 	44757
scalar ExamTaskNetwork_no_CCTV.ConferenceLaptop.wlan[0].mac 	"number of internal collisions" 	0
scalar ExamTaskNetwork_no_CCTV.ConferenceLaptop.wlan[0].mac 	"number of retry for AC 0" 	9161
scalar ExamTaskNetwork_no_CCTV.ConferenceLaptop.wlan[0].mac 	"sent and received bits" 	292025472
scalar ExamTaskNetwork_no_CCTV.ConferenceLaptop.wlan[0].mac 	"sent packet within AC 0" 	24884
scalar ExamTaskNetwork_no_CCTV.ConferenceLaptop.wlan[0].mac 	"sent in TXOP " 	0
scalar ExamTaskNetwork_no_CCTV.ConferenceLaptop.wlan[0].mac 	"sentWithoutRetry AC 0" 	18266
scalar ExamTaskNetwork_no_CCTV.ConferenceLaptop.wlan[0].mac 	"numGivenUp AC 0" 	3
scalar ExamTaskNetwork_no_CCTV.ConferenceLaptop.wlan[0].mac 	"numDropped AC 0" 	0
scalar ExamTaskNetwork_no_CCTV.ConferenceLaptop.wlan[0].mac 	rcvdPkFromHL:count 	24899
attr interpolationmode  none
attr source  packetReceivedFromUpper
attr title  "packets received from higher layer, count"
scalar ExamTaskNetwork_no_CCTV.ConferenceLaptop.wlan[0].mac 	rcvdPkFromHL:sum(packetBytes) 	36507594
attr interpolationmode  none
attr source  packetReceivedFromUpper
attr title  "packets received from higher layer, sum(packetBytes)"
scalar ExamTaskNetwork_no_CCTV.ConferenceLaptop.wlan[0].mac 	passedUpPk:count 	34250
attr interpolationmode  none
attr source  packetSentToUpper
attr title  "packets passed to higher layer, count"
scalar ExamTaskNetwork_no_CCTV.ConferenceLaptop.wlan[0].mac 	passedUpPk:sum(packetBytes) 	36751792
attr interpolationmode  none
attr source  packetSentToUpper
attr title  "packets passed to higher layer, sum(packetBytes)"
scalar ExamTaskNetwork_no_CCTV.ConferenceLaptop.wlan[0].mac 	rcvdPkFromLL:count 	3704560
attr interpolationmode  none
attr source  packetReceivedFromLower
attr title  "packets received from lower layer, count"
scalar ExamTaskNetwork_no_CCTV.ConferenceLaptop.wlan[0].mac 	rcvdPkFromLL:sum(packetBytes) 	1389223447
attr interpolationmode  none
attr source  packetReceivedFromLower
attr title  "packets received from lower layer, sum(packetBytes)"
scalar ExamTaskNetwork_no_CCTV.ConferenceLaptop.wlan[0].mac 	sentDownPk:count 	58595
attr interpolationmode  none
attr source  packetSentToLower
attr title  "packets sent to lower layer, count"
scalar ExamTaskNetwork_no_CCTV.ConferenceLaptop.wlan[0].mac 	sentDownPk:sum(packetBytes) 	50257586
attr interpolationmode  none
attr source  packetSentToLower
attr title  "packets sent to lower layer, sum(packetBytes)"
scalar ExamTaskNetwork_no_CCTV.ConferenceLaptop.wlan[0].radio 	lossRate:min 	0
attr interpolationmode  backward-sample-hold
attr title  "packet loss rate, min"
scalar ExamTaskNetwork_no_CCTV.ConferenceLaptop.wlan[0].radio 	lossRate:max 	0.24
attr interpolationmode  backward-sample-hold
attr title  "packet loss rate, max"
scalar ExamTaskNetwork_no_CCTV.ConferenceLaptop.wlan[0].radio 	lossRate:timeavg 	0.012026823045031
attr interpolationmode  backward-sample-hold
attr title  "packet loss rate, timeavg"
statistic ExamTaskNetwork_no_CCTV.ConferenceLaptop.wlan[0].radio 	channelNo:histogram
field count 1
field mean 0
field stddev -nan
field sum 0
field sqrsum 0
field min 0
field max 0
attr interpolationmode  sample-hold
attr title  "channel no, histogram"
bin	-INF	0
bin	-0.5	0
bin	-0.46666666666667	0
bin	-0.43333333333333	0
bin	-0.4	0
bin	-0.36666666666667	0
bin	-0.33333333333333	0
bin	-0.3	0
bin	-0.26666666666667	0
bin	-0.23333333333333	0
bin	-0.2	0
bin	-0.16666666666667	0
bin	-0.13333333333333	0
bin	-0.1	0
bin	-0.066666666666667	0
bin	-0.033333333333333	0
bin	0	1
bin	0.033333333333333	0
bin	0.066666666666667	0
bin	0.1	0
bin	0.13333333333333	0
bin	0.16666666666667	0
bin	0.2	0
bin	0.23333333333333	0
bin	0.26666666666667	0
bin	0.3	0
bin	0.33333333333333	0
bin	0.36666666666667	0
bin	0.4	0
bin	0.43333333333333	0
bin	0.46666666666667	0
bin	0.5	0
scalar ExamTaskNetwork_no_CCTV.ConferenceLaptop.wlan[0].radio 	radioState:count 	7536143
attr interpolationmode  sample-hold
attr title  "radio state (enum), count"
scalar ExamTaskNetwork_no_CCTV.ConferenceLaptop.wlan[0].radio 	bitrate:min 	54000000
attr interpolationmode  sample-hold
attr title  "tx bitrate, min"
attr unit  bps
scalar ExamTaskNetwork_no_CCTV.ConferenceLaptop.wlan[0].radio 	bitrate:max 	54000000
attr interpolationmode  sample-hold
attr title  "tx bitrate, max"
attr unit  bps
scalar ExamTaskNetwork_no_CCTV.ConferenceLaptop.wlan[0].radio 	bitrate:timeavg 	54000000
attr interpolationmode  sample-hold
attr title  "tx bitrate, timeavg"
attr unit  bps
scalar ExamTaskNetwork_no_CCTV.ConferenceLaptop.udpApp[0] 	"packets sent" 	24963
scalar ExamTaskNetwork_no_CCTV.ConferenceLaptop.udpApp[0] 	"packets received" 	24365
scalar ExamTaskNetwork_no_CCTV.ConferenceLaptop.udpApp[0] 	lateRatio 	0.00012312743638176
scalar ExamTaskNetwork_no_CCTV.ConferenceLaptop.udpApp[0] 	"discarded packets" 	3
statistic ExamTaskNetwork_no_CCTV.ConferenceLaptop.udpApp[0] 	endToEndDelay:stats
field count 24365
field mean 0.049121141465711
field stddev 0.015231139899658
field sum 1196.836611812
field sqrsum 64.442126958234
field min 0.016464827461
field max 0.11332972202
attr source  VoIPPacketDelay
attr title  "VoIP Packet End-to-End Delay, stats"
attr unit  s
scalar ExamTaskNetwork_no_CCTV.ConferenceLaptop.udpApp[0] 	sentPk:count 	24963
attr interpolationmode  none
attr source  sentPk
attr title  "packets sent, count"
scalar ExamTaskNetwork_no_CCTV.ConferenceLaptop.udpApp[0] 	sentPk:sum(packetBytes) 	34948200
attr interpolationmode  none
attr source  sentPk
attr title  "packets sent, sum(packetBytes)"
scalar ExamTaskNetwork_no_CCTV.ConferenceLaptop.udpApp[0] 	rcvdPk:count 	24365
attr interpolationmode  none
attr source  rcvdPk
attr title  "packets received, count"
scalar ExamTaskNetwork_no_CCTV.ConferenceLaptop.udpApp[0] 	rcvdPk:sum(packetBytes) 	34111000
attr interpolationmode  none
attr source  rcvdPk
attr title  "packets received, sum(packetBytes)"
statistic ExamTaskNetwork_no_CCTV.ConferenceLaptop.udpApp[0] 	rcvdPkLifetime:stats
field count 24365
field mean 0.049121141465711
field stddev 0.015231139899658
field sum 1196.836611812
field sqrsum 64.442126958234
field min 0.016464827461
field max 0.11332972202
attr interpolationmode  none
attr source  messageAge(rcvdPk)
attr title  "received packet lifetime, stats"
attr unit  s
scalar ExamTaskNetwork_no_CCTV.ConferenceLaptop.udp 	droppedPkBadChecksum:count 	0
attr interpolationmode  none
attr title  "packets dropped (checksum error), count"
scalar ExamTaskNetwork_no_CCTV.ConferenceLaptop.udp 	droppedPkWrongPort:count 	0
attr interpolationmode  none
attr title  "packets dropped (wrong port), count"
scalar ExamTaskNetwork_no_CCTV.ConferenceLaptop.udp 	passedUpPk:count 	24365
attr interpolationmode  none
attr title  "packets passed up, count"
scalar ExamTaskNetwork_no_CCTV.ConferenceLaptop.udp 	sentPk:count 	24963
attr interpolationmode  none
attr source  sentPk
attr title  "packets sent, count"
scalar ExamTaskNetwork_no_CCTV.ConferenceLaptop.udp 	sentPk:sum(packetBytes) 	35147904
attr interpolationmode  none
attr source  sentPk
attr title  "packets sent, sum(packetBytes)"
scalar ExamTaskNetwork_no_CCTV.ConferenceLaptop.udp 	rcvdPk:count 	24365
attr interpolationmode  none
attr source  rcvdPk
attr title  "packets received, count"
scalar ExamTaskNetwork_no_CCTV.ConferenceLaptop.udp 	rcvdPk:sum(packetBytes) 	34305920
attr interpolationmode  none
attr source  rcvdPk
attr title  "packets received, sum(packetBytes)"
scalar ExamTaskNetwork_no_CCTV.FTPLaptop.networkLayer.arp 	initiatedARPResolution:count 	9
attr title  "ARP initiated resolutions, count"
scalar ExamTaskNetwork_no_CCTV.FTPLaptop.networkLayer.arp 	sentReply:count 	8
attr title  "ARP replies sent, count"
scalar ExamTaskNetwork_no_CCTV.FTPLaptop.networkLayer.arp 	sentReq:count 	10
attr title  "ARP request sent, count"
scalar ExamTaskNetwork_no_CCTV.FTPLaptop.networkLayer.arp 	failedARPResolution:count 	0
attr title  "ARP failed resolutions, count"
scalar ExamTaskNetwork_no_CCTV.FTPLaptop.networkLayer.arp 	completedARPResolution:count 	134
attr title  "ARP completed resolutions, count"
scalar ExamTaskNetwork_no_CCTV.FTPLaptop.lo0.lo 	rcvdPkFromHL:count 	0
attr interpolationmode  none
attr source  packetReceivedFromUpper
attr title  "packets received from higher layer, count"
scalar ExamTaskNetwork_no_CCTV.FTPLaptop.lo0.lo 	rcvdPkFromHL:sum(packetBytes) 	0
attr interpolationmode  none
attr source  packetReceivedFromUpper
attr title  "packets received from higher layer, sum(packetBytes)"
scalar ExamTaskNetwork_no_CCTV.FTPLaptop.lo0.lo 	passedUpPk:count 	0
attr interpolationmode  none
attr source  packetSentToUpper
attr title  "packets passed to higher layer, count"
scalar ExamTaskNetwork_no_CCTV.FTPLaptop.lo0.lo 	passedUpPk:sum(packetBytes) 	0
attr interpolationmode  none
attr source  packetSentToUpper
attr title  "packets passed to higher layer, sum(packetBytes)"
scalar ExamTaskNetwork_no_CCTV.FTPLaptop.lo0.lo 	droppedPkBitError:count 	0
attr interpolationmode  none
attr source  dropPkBitError
attr title  "packets dropped/bit error, count"
scalar ExamTaskNetwork_no_CCTV.FTPLaptop.lo0.lo 	droppedPkBitError:sum(packetBytes) 	0
attr interpolationmode  none
attr source  dropPkBitError
attr title  "packets dropped/bit error, sum(packetBytes)"
scalar ExamTaskNetwork_no_CCTV.FTPLaptop.wlan[0].agent 	dropConfirm:count 	0
attr title  "dropped confirms, count"
scalar ExamTaskNetwork_no_CCTV.FTPLaptop.wlan[0].agent 	acceptConfirm:count 	36
attr title  "accepted confirms, count"
scalar ExamTaskNetwork_no_CCTV.FTPLaptop.wlan[0].agent 	sentRequest:count 	36
attr title  "sent requests, count"
scalar ExamTaskNetwork_no_CCTV.FTPLaptop.wlan[0].mgmt 	dropPkByQueue:count 	3088
attr interpolationmode  none
attr source  dropPkByQueue
attr title  "packets dropped by queue, count"
scalar ExamTaskNetwork_no_CCTV.FTPLaptop.wlan[0].mgmt 	dropPkByQueue:sum(packetBytes) 	4780202
attr interpolationmode  none
attr source  dropPkByQueue
attr title  "packets dropped by queue, sum(packetBytes)"
scalar ExamTaskNetwork_no_CCTV.FTPLaptop.wlan[0].mgmt 	dataQueueLen:max 	50
attr interpolationmode  sample-hold
attr title  "data queue length, max"
scalar ExamTaskNetwork_no_CCTV.FTPLaptop.wlan[0].mgmt 	dataQueueLen:timeavg 	4.5164316139539
attr interpolationmode  sample-hold
attr title  "data queue length, timeavg"
scalar ExamTaskNetwork_no_CCTV.FTPLaptop.wlan[0].mac 	"number of received packets" 	396756
scalar ExamTaskNetwork_no_CCTV.FTPLaptop.wlan[0].mac 	"number of collisions" 	6037
scalar ExamTaskNetwork_no_CCTV.FTPLaptop.wlan[0].mac 	"number of internal collisions" 	0
scalar ExamTaskNetwork_no_CCTV.FTPLaptop.wlan[0].mac 	"number of retry for AC 0" 	82409
scalar ExamTaskNetwork_no_CCTV.FTPLaptop.wlan[0].mac 	"sent and received bits" 	5167932328
scalar ExamTaskNetwork_no_CCTV.FTPLaptop.wlan[0].mac 	"sent packet within AC 0" 	417417
scalar ExamTaskNetwork_no_CCTV.FTPLaptop.wlan[0].mac 	"sent in TXOP " 	0
scalar ExamTaskNetwork_no_CCTV.FTPLaptop.wlan[0].mac 	"sentWithoutRetry AC 0" 	352060
scalar ExamTaskNetwork_no_CCTV.FTPLaptop.wlan[0].mac 	"numGivenUp AC 0" 	2
scalar ExamTaskNetwork_no_CCTV.FTPLaptop.wlan[0].mac 	"numDropped AC 0" 	0
scalar ExamTaskNetwork_no_CCTV.FTPLaptop.wlan[0].mac 	rcvdPkFromHL:count 	417431
attr interpolationmode  none
attr source  packetReceivedFromUpper
attr title  "packets received from higher layer, count"
scalar ExamTaskNetwork_no_CCTV.FTPLaptop.wlan[0].mac 	rcvdPkFromHL:sum(packetBytes) 	645994637
attr interpolationmode  none
attr source  packetReceivedFromUpper
attr title  "packets received from higher layer, sum(packetBytes)"
scalar ExamTaskNetwork_no_CCTV.FTPLaptop.wlan[0].mac 	passedUpPk:count 	406460
attr interpolationmode  none
attr source  packetSentToUpper
attr title  "packets passed to higher layer, count"
scalar ExamTaskNetwork_no_CCTV.FTPLaptop.wlan[0].mac 	passedUpPk:sum(packetBytes) 	33282680
attr interpolationmode  none
attr source  packetSentToUpper
attr title  "packets passed to higher layer, sum(packetBytes)"
scalar ExamTaskNetwork_no_CCTV.FTPLaptop.wlan[0].mac 	rcvdPkFromLL:count 	2866559
attr interpolationmode  none
attr source  packetReceivedFromLower
attr title  "packets received from lower layer, count"
scalar ExamTaskNetwork_no_CCTV.FTPLaptop.wlan[0].mac 	rcvdPkFromLL:sum(packetBytes) 	697124439
attr interpolationmode  none
attr source  packetReceivedFromLower
attr title  "packets received from lower layer, sum(packetBytes)"
scalar ExamTaskNetwork_no_CCTV.FTPLaptop.wlan[0].mac 	sentDownPk:count 	896596
attr interpolationmode  none
attr source  packetSentToLower
attr title  "packets sent to lower layer, count"
scalar ExamTaskNetwork_no_CCTV.FTPLaptop.wlan[0].mac 	sentDownPk:sum(packetBytes) 	779055744
attr interpolationmode  none
attr source  packetSentToLower
attr title  "packets sent to lower layer, sum(packetBytes)"
scalar ExamTaskNetwork_no_CCTV.FTPLaptop.wlan[0].radio 	lossRate:min 	0
attr interpolationmode  backward-sample-hold
attr title  "packet loss rate, min"
scalar ExamTaskNetwork_no_CCTV.FTPLaptop.wlan[0].radio 	lossRate:max 	0.24
attr interpolationmode  backward-sample-hold
attr title  "packet loss rate, max"
scalar ExamTaskNetwork_no_CCTV.FTPLaptop.wlan[0].radio 	lossRate:timeavg 	0.0020967164890524
attr interpolationmode  backward-sample-hold
attr title  "packet loss rate, timeavg"
statistic ExamTaskNetwork_no_CCTV.FTPLaptop.wlan[0].radio 	channelNo:histogram
field count 1
field mean 0
field stddev -nan
field sum 0
field sqrsum 0
field min 0
field max 0
attr interpolationmode  sample-hold
attr title  "channel no, histogram"
bin	-INF	0
bin	-0.5	0
bin	-0.46666666666667	0
bin	-0.43333333333333	0
bin	-0.4	0
bin	-0.36666666666667	0
bin	-0.33333333333333	0
bin	-0.3	0
bin	-0.26666666666667	0
bin	-0.23333333333333	0
bin	-0.2	0
bin	-0.16666666666667	0
bin	-0.13333333333333	0
bin	-0.1	0
bin	-0.066666666666667	0
bin	-0.033333333333333	0
bin	0	1
bin	0.033333333333333	0
bin	0.066666666666667	0
bin	0.1	0
bin	0.13333333333333	0
bin	0.16666666666667	0
bin	0.2	0
bin	0.23333333333333	0
bin	0.26666666666667	0
bin	0.3	0
bin	0.33333333333333	0
bin	0.36666666666667	0
bin	0.4	0
bin	0.43333333333333	0
bin	0.46666666666667	0
bin	0.5	0
scalar ExamTaskNetwork_no_CCTV.FTPLaptop.wlan[0].radio 	radioState:count 	7576236
attr interpolationmode  sample-hold
attr title  "radio state (enum), count"
scalar ExamTaskNetwork_no_CCTV.FTPLaptop.wlan[0].radio 	bitrate:min 	54000000
attr interpolationmode  sample-hold
attr title  "tx bitrate, min"
attr unit  bps
scalar ExamTaskNetwork_no_CCTV.FTPLaptop.wlan[0].radio 	bitrate:max 	54000000
attr interpolationmode  sample-hold
attr title  "tx bitrate, max"
attr unit  bps
scalar ExamTaskNetwork_no_CCTV.FTPLaptop.wlan[0].radio 	bitrate:timeavg 	54000000
attr interpolationmode  sample-hold
attr title  "tx bitrate, timeavg"
attr unit  bps
scalar ExamTaskNetwork_no_CCTV.FTPLaptop.tcpApp[0] 	bytesRcvd 	0
scalar ExamTaskNetwork_no_CCTV.FTPLaptop.tcpApp[0] 	bytesSent 	1778384896
scalar ExamTaskNetwork_no_CCTV.FTPLaptop.tcpApp[0] 	sentPk:count 	1
attr interpolationmode  none
attr source  sentPk
attr title  "packets sent, count"
scalar ExamTaskNetwork_no_CCTV.FTPLaptop.tcpApp[0] 	sentPk:sum(packetBytes) 	1778384896
attr interpolationmode  none
attr source  sentPk
attr title  "packets sent, sum(packetBytes)"
scalar ExamTaskNetwork_no_CCTV.FTPLaptop.tcpApp[0] 	rcvdPk:count 	0
attr interpolationmode  none
attr source  rcvdPk
attr title  "packets received, count"
scalar ExamTaskNetwork_no_CCTV.FTPLaptop.tcpApp[0] 	rcvdPk:sum(packetBytes) 	0
attr interpolationmode  none
attr source  rcvdPk
attr title  "packets received, sum(packetBytes)"
statistic ExamTaskNetwork_no_CCTV.FTPLaptop.tcpApp[0] 	endToEndDelay:histogram
field count 0
field mean -nan
field stddev -nan
field sum 0
field sqrsum 0
field min -nan
field max -nan
attr interpolationmode  none
attr source  messageAge(rcvdPk)
attr title  "end-to-end delay, histogram"
attr unit  s
bin	-INF	0
bin	-0.5	0
bin	-0.46666666666667	0
bin	-0.43333333333333	0
bin	-0.4	0
bin	-0.36666666666667	0
bin	-0.33333333333333	0
bin	-0.3	0
bin	-0.26666666666667	0
bin	-0.23333333333333	0
bin	-0.2	0
bin	-0.16666666666667	0
bin	-0.13333333333333	0
bin	-0.1	0
bin	-0.066666666666667	0
bin	-0.033333333333333	0
bin	0	0
bin	0.033333333333333	0
bin	0.066666666666667	0
bin	0.1	0
bin	0.13333333333333	0
bin	0.16666666666667	0
bin	0.2	0
bin	0.23333333333333	0
bin	0.26666666666667	0
bin	0.3	0
bin	0.33333333333333	0
bin	0.36666666666667	0
bin	0.4	0
bin	0.43333333333333	0
bin	0.46666666666667	0
bin	0.5	0
scalar ExamTaskNetwork_no_CCTV.BrowsingLaptop[0].networkLayer.arp 	initiatedARPResolution:count 	8
attr title  "ARP initiated resolutions, count"
scalar ExamTaskNetwork_no_CCTV.BrowsingLaptop[0].networkLayer.arp 	sentReply:count 	4
attr title  "ARP replies sent, count"
scalar ExamTaskNetwork_no_CCTV.BrowsingLaptop[0].networkLayer.arp 	sentReq:count 	8
attr title  "ARP request sent, count"
scalar ExamTaskNetwork_no_CCTV.BrowsingLaptop[0].networkLayer.arp 	failedARPResolution:count 	0
attr title  "ARP failed resolutions, count"
scalar ExamTaskNetwork_no_CCTV.BrowsingLaptop[0].networkLayer.arp 	completedARPResolution:count 	103
attr title  "ARP completed resolutions, count"
scalar ExamTaskNetwork_no_CCTV.BrowsingLaptop[0].lo0.lo 	rcvdPkFromHL:count 	0
attr interpolationmode  none
attr source  packetReceivedFromUpper
attr title  "packets received from higher layer, count"
scalar ExamTaskNetwork_no_CCTV.BrowsingLaptop[0].lo0.lo 	rcvdPkFromHL:sum(packetBytes) 	0
attr interpolationmode  none
attr source  packetReceivedFromUpper
attr title  "packets received from higher layer, sum(packetBytes)"
scalar ExamTaskNetwork_no_CCTV.BrowsingLaptop[0].lo0.lo 	passedUpPk:count 	0
attr interpolationmode  none
attr source  packetSentToUpper
attr title  "packets passed to higher layer, count"
scalar ExamTaskNetwork_no_CCTV.BrowsingLaptop[0].lo0.lo 	passedUpPk:sum(packetBytes) 	0
attr interpolationmode  none
attr source  packetSentToUpper
attr title  "packets passed to higher layer, sum(packetBytes)"
scalar ExamTaskNetwork_no_CCTV.BrowsingLaptop[0].lo0.lo 	droppedPkBitError:count 	0
attr interpolationmode  none
attr source  dropPkBitError
attr title  "packets dropped/bit error, count"
scalar ExamTaskNetwork_no_CCTV.BrowsingLaptop[0].lo0.lo 	droppedPkBitError:sum(packetBytes) 	0
attr interpolationmode  none
attr source  dropPkBitError
attr title  "packets dropped/bit error, sum(packetBytes)"
scalar ExamTaskNetwork_no_CCTV.BrowsingLaptop[0].wlan[0].agent 	dropConfirm:count 	0
attr title  "dropped confirms, count"
scalar ExamTaskNetwork_no_CCTV.BrowsingLaptop[0].wlan[0].agent 	acceptConfirm:count 	36
attr title  "accepted confirms, count"
scalar ExamTaskNetwork_no_CCTV.BrowsingLaptop[0].wlan[0].agent 	sentRequest:count 	36
attr title  "sent requests, count"
scalar ExamTaskNetwork_no_CCTV.BrowsingLaptop[0].wlan[0].mgmt 	dropPkByQueue:count 	0
attr interpolationmode  none
attr source  dropPkByQueue
attr title  "packets dropped by queue, count"
scalar ExamTaskNetwork_no_CCTV.BrowsingLaptop[0].wlan[0].mgmt 	dropPkByQueue:sum(packetBytes) 	0
attr interpolationmode  none
attr source  dropPkByQueue
attr title  "packets dropped by queue, sum(packetBytes)"
scalar ExamTaskNetwork_no_CCTV.BrowsingLaptop[0].wlan[0].mgmt 	dataQueueLen:max 	1
attr interpolationmode  sample-hold
attr title  "data queue length, max"
scalar ExamTaskNetwork_no_CCTV.BrowsingLaptop[0].wlan[0].mgmt 	dataQueueLen:timeavg 	2.8022425437287e-06
attr interpolationmode  sample-hold
attr title  "data queue length, timeavg"
scalar ExamTaskNetwork_no_CCTV.BrowsingLaptop[0].wlan[0].mac 	"number of received packets" 	20709
scalar ExamTaskNetwork_no_CCTV.BrowsingLaptop[0].wlan[0].mac 	"number of collisions" 	51291
scalar ExamTaskNetwork_no_CCTV.BrowsingLaptop[0].wlan[0].mac 	"number of internal collisions" 	0
scalar ExamTaskNetwork_no_CCTV.BrowsingLaptop[0].wlan[0].mac 	"number of retry for AC 0" 	80
scalar ExamTaskNetwork_no_CCTV.BrowsingLaptop[0].wlan[0].mac 	"sent and received bits" 	7956768
scalar ExamTaskNetwork_no_CCTV.BrowsingLaptop[0].wlan[0].mac 	"sent packet within AC 0" 	10191
scalar ExamTaskNetwork_no_CCTV.BrowsingLaptop[0].wlan[0].mac 	"sent in TXOP " 	0
scalar ExamTaskNetwork_no_CCTV.BrowsingLaptop[0].wlan[0].mac 	"sentWithoutRetry AC 0" 	10138
scalar ExamTaskNetwork_no_CCTV.BrowsingLaptop[0].wlan[0].mac 	"numGivenUp AC 0" 	0
scalar ExamTaskNetwork_no_CCTV.BrowsingLaptop[0].wlan[0].mac 	"numDropped AC 0" 	0
scalar ExamTaskNetwork_no_CCTV.BrowsingLaptop[0].wlan[0].mac 	rcvdPkFromHL:count 	10203
attr interpolationmode  none
attr source  packetReceivedFromUpper
attr title  "packets received from higher layer, count"
scalar ExamTaskNetwork_no_CCTV.BrowsingLaptop[0].wlan[0].mac 	rcvdPkFromHL:sum(packetBytes) 	994596
attr interpolationmode  none
attr source  packetReceivedFromUpper
attr title  "packets received from higher layer, sum(packetBytes)"
scalar ExamTaskNetwork_no_CCTV.BrowsingLaptop[0].wlan[0].mac 	passedUpPk:count 	30429
attr interpolationmode  none
attr source  packetSentToUpper
attr title  "packets passed to higher layer, count"
scalar ExamTaskNetwork_no_CCTV.BrowsingLaptop[0].wlan[0].mac 	passedUpPk:sum(packetBytes) 	17864875
attr interpolationmode  none
attr source  packetSentToUpper
attr title  "packets passed to higher layer, sum(packetBytes)"
scalar ExamTaskNetwork_no_CCTV.BrowsingLaptop[0].wlan[0].mac 	rcvdPkFromLL:count 	3732163
attr interpolationmode  none
attr source  packetReceivedFromLower
attr title  "packets received from lower layer, count"
scalar ExamTaskNetwork_no_CCTV.BrowsingLaptop[0].wlan[0].mac 	rcvdPkFromLL:sum(packetBytes) 	1434606687
attr interpolationmode  none
attr source  packetReceivedFromLower
attr title  "packets received from lower layer, sum(packetBytes)"
scalar ExamTaskNetwork_no_CCTV.BrowsingLaptop[0].wlan[0].mac 	sentDownPk:count 	30992
attr interpolationmode  none
attr source  packetSentToLower
attr title  "packets sent to lower layer, count"
scalar ExamTaskNetwork_no_CCTV.BrowsingLaptop[0].wlan[0].mac 	sentDownPk:sum(packetBytes) 	1318050
attr interpolationmode  none
attr source  packetSentToLower
attr title  "packets sent to lower layer, sum(packetBytes)"
scalar ExamTaskNetwork_no_CCTV.BrowsingLaptop[0].wlan[0].radio 	lossRate:min 	0
attr interpolationmode  backward-sample-hold
attr title  "packet loss rate, min"
scalar ExamTaskNetwork_no_CCTV.BrowsingLaptop[0].wlan[0].radio 	lossRate:max 	0.24
attr interpolationmode  backward-sample-hold
attr title  "packet loss rate, max"
scalar ExamTaskNetwork_no_CCTV.BrowsingLaptop[0].wlan[0].radio 	lossRate:timeavg 	0.013651439372417
attr interpolationmode  backward-sample-hold
attr title  "packet loss rate, timeavg"
statistic ExamTaskNetwork_no_CCTV.BrowsingLaptop[0].wlan[0].radio 	channelNo:histogram
field count 1
field mean 0
field stddev -nan
field sum 0
field sqrsum 0
field min 0
field max 0
attr interpolationmode  sample-hold
attr title  "channel no, histogram"
bin	-INF	0
bin	-0.5	0
bin	-0.46666666666667	0
bin	-0.43333333333333	0
bin	-0.4	0
bin	-0.36666666666667	0
bin	-0.33333333333333	0
bin	-0.3	0
bin	-0.26666666666667	0
bin	-0.23333333333333	0
bin	-0.2	0
bin	-0.16666666666667	0
bin	-0.13333333333333	0
bin	-0.1	0
bin	-0.066666666666667	0
bin	-0.033333333333333	0
bin	0	1
bin	0.033333333333333	0
bin	0.066666666666667	0
bin	0.1	0
bin	0.13333333333333	0
bin	0.16666666666667	0
bin	0.2	0
bin	0.23333333333333	0
bin	0.26666666666667	0
bin	0.3	0
bin	0.33333333333333	0
bin	0.36666666666667	0
bin	0.4	0
bin	0.43333333333333	0
bin	0.46666666666667	0
bin	0.5	0
scalar ExamTaskNetwork_no_CCTV.BrowsingLaptop[0].wlan[0].radio 	radioState:count 	7526406
attr interpolationmode  sample-hold
attr title  "radio state (enum), count"
scalar ExamTaskNetwork_no_CCTV.BrowsingLaptop[0].wlan[0].radio 	bitrate:min 	54000000
attr interpolationmode  sample-hold
attr title  "tx bitrate, min"
attr unit  bps
scalar ExamTaskNetwork_no_CCTV.BrowsingLaptop[0].wlan[0].radio 	bitrate:max 	54000000
attr interpolationmode  sample-hold
attr title  "tx bitrate, max"
attr unit  bps
scalar ExamTaskNetwork_no_CCTV.BrowsingLaptop[0].wlan[0].radio 	bitrate:timeavg 	54000000
attr interpolationmode  sample-hold
attr title  "tx bitrate, timeavg"
attr unit  bps
scalar ExamTaskNetwork_no_CCTV.BrowsingLaptop[0].tcpApp[0] 	numActiveSessions:max 	1
attr interpolationmode  sample-hold
attr source  sum(connect)
attr title  "number of active sessions, max"
scalar ExamTaskNetwork_no_CCTV.BrowsingLaptop[0].tcpApp[0] 	numActiveSessions:timeavg 	0.59191597740443
attr interpolationmode  sample-hold
attr source  sum(connect)
attr title  "number of active sessions, timeavg"
scalar ExamTaskNetwork_no_CCTV.BrowsingLaptop[0].tcpApp[0] 	numSessions:last 	19
attr source  sum(connect+1)/2
attr title  "total number of sessions, last"
scalar ExamTaskNetwork_no_CCTV.BrowsingLaptop[0].tcpApp[0] 	sentPk:count 	19
attr interpolationmode  none
attr source  sentPk
attr title  "packets sent, count"
scalar ExamTaskNetwork_no_CCTV.BrowsingLaptop[0].tcpApp[0] 	sentPk:sum(packetBytes) 	155648
attr interpolationmode  none
attr source  sentPk
attr title  "packets sent, sum(packetBytes)"
scalar ExamTaskNetwork_no_CCTV.BrowsingLaptop[0].tcpApp[0] 	rcvdPk:count 	18
attr interpolationmode  none
attr source  rcvdPk
attr title  "packets received, count"
scalar ExamTaskNetwork_no_CCTV.BrowsingLaptop[0].tcpApp[0] 	rcvdPk:sum(packetBytes) 	14146330
attr interpolationmode  none
attr source  rcvdPk
attr title  "packets received, sum(packetBytes)"
statistic ExamTaskNetwork_no_CCTV.BrowsingLaptop[0].tcpApp[0] 	endToEndDelay:histogram
field count 18
field mean 32.397373736395
field stddev 28.400930728586
field sum 583.1527272551
field sqrsum 32605.035576531
field min 0.641807021217
field max 102.35594816739
attr interpolationmode  none
attr source  messageAge(rcvdPk)
attr title  "end-to-end delay, histogram"
attr unit  s
bin	-INF	0
bin	-50.215263551871	0
bin	-43.434320808793	0
bin	-36.653378065714	0
bin	-29.872435322636	0
bin	-23.091492579557	0
bin	-16.310549836479	0
bin	-9.5296070934006	0
bin	-2.7486643503222	3
bin	4.0322783927562	1
bin	10.813221135835	2
bin	17.594163878913	3
bin	24.375106621991	2
bin	31.15604936507	1
bin	37.936992108148	1
bin	44.717934851227	1
bin	51.498877594305	1
bin	58.279820337383	1
bin	65.060763080462	0
bin	71.84170582354	0
bin	78.622648566619	1
bin	85.403591309697	0
bin	92.184534052775	0
bin	98.965476795854	1
bin	105.74641953893	0
bin	112.52736228201	0
bin	119.30830502509	0
bin	126.08924776817	0
bin	132.87019051125	0
bin	139.65113325432	0
bin	146.4320759974	0
bin	153.21301874048	0
scalar ExamTaskNetwork_no_CCTV.BrowsingLaptop[1].networkLayer.arp 	initiatedARPResolution:count 	8
attr title  "ARP initiated resolutions, count"
scalar ExamTaskNetwork_no_CCTV.BrowsingLaptop[1].networkLayer.arp 	sentReply:count 	5
attr title  "ARP replies sent, count"
scalar ExamTaskNetwork_no_CCTV.BrowsingLaptop[1].networkLayer.arp 	sentReq:count 	11
attr title  "ARP request sent, count"
scalar ExamTaskNetwork_no_CCTV.BrowsingLaptop[1].networkLayer.arp 	failedARPResolution:count 	0
attr title  "ARP failed resolutions, count"
scalar ExamTaskNetwork_no_CCTV.BrowsingLaptop[1].networkLayer.arp 	completedARPResolution:count 	135
attr title  "ARP completed resolutions, count"
scalar ExamTaskNetwork_no_CCTV.BrowsingLaptop[1].lo0.lo 	rcvdPkFromHL:count 	0
attr interpolationmode  none
attr source  packetReceivedFromUpper
attr title  "packets received from higher layer, count"
scalar ExamTaskNetwork_no_CCTV.BrowsingLaptop[1].lo0.lo 	rcvdPkFromHL:sum(packetBytes) 	0
attr interpolationmode  none
attr source  packetReceivedFromUpper
attr title  "packets received from higher layer, sum(packetBytes)"
scalar ExamTaskNetwork_no_CCTV.BrowsingLaptop[1].lo0.lo 	passedUpPk:count 	0
attr interpolationmode  none
attr source  packetSentToUpper
attr title  "packets passed to higher layer, count"
scalar ExamTaskNetwork_no_CCTV.BrowsingLaptop[1].lo0.lo 	passedUpPk:sum(packetBytes) 	0
attr interpolationmode  none
attr source  packetSentToUpper
attr title  "packets passed to higher layer, sum(packetBytes)"
scalar ExamTaskNetwork_no_CCTV.BrowsingLaptop[1].lo0.lo 	droppedPkBitError:count 	0
attr interpolationmode  none
attr source  dropPkBitError
attr title  "packets dropped/bit error, count"
scalar ExamTaskNetwork_no_CCTV.BrowsingLaptop[1].lo0.lo 	droppedPkBitError:sum(packetBytes) 	0
attr interpolationmode  none
attr source  dropPkBitError
attr title  "packets dropped/bit error, sum(packetBytes)"
scalar ExamTaskNetwork_no_CCTV.BrowsingLaptop[1].wlan[0].agent 	dropConfirm:count 	0
attr title  "dropped confirms, count"
scalar ExamTaskNetwork_no_CCTV.BrowsingLaptop[1].wlan[0].agent 	acceptConfirm:count 	36
attr title  "accepted confirms, count"
scalar ExamTaskNetwork_no_CCTV.BrowsingLaptop[1].wlan[0].agent 	sentRequest:count 	36
attr title  "sent requests, count"
scalar ExamTaskNetwork_no_CCTV.BrowsingLaptop[1].wlan[0].mgmt 	dropPkByQueue:count 	0
attr interpolationmode  none
attr source  dropPkByQueue
attr title  "packets dropped by queue, count"
scalar ExamTaskNetwork_no_CCTV.BrowsingLaptop[1].wlan[0].mgmt 	dropPkByQueue:sum(packetBytes) 	0
attr interpolationmode  none
attr source  dropPkByQueue
attr title  "packets dropped by queue, sum(packetBytes)"
scalar ExamTaskNetwork_no_CCTV.BrowsingLaptop[1].wlan[0].mgmt 	dataQueueLen:max 	45
attr interpolationmode  sample-hold
attr title  "data queue length, max"
scalar ExamTaskNetwork_no_CCTV.BrowsingLaptop[1].wlan[0].mgmt 	dataQueueLen:timeavg 	0.0095227868190759
attr interpolationmode  sample-hold
attr title  "data queue length, timeavg"
scalar ExamTaskNetwork_no_CCTV.BrowsingLaptop[1].wlan[0].mac 	"number of received packets" 	18461
scalar ExamTaskNetwork_no_CCTV.BrowsingLaptop[1].wlan[0].mac 	"number of collisions" 	51186
scalar ExamTaskNetwork_no_CCTV.BrowsingLaptop[1].wlan[0].mac 	"number of internal collisions" 	0
scalar ExamTaskNetwork_no_CCTV.BrowsingLaptop[1].wlan[0].mac 	"number of retry for AC 0" 	246
scalar ExamTaskNetwork_no_CCTV.BrowsingLaptop[1].wlan[0].mac 	"sent and received bits" 	7675488
scalar ExamTaskNetwork_no_CCTV.BrowsingLaptop[1].wlan[0].mac 	"sent packet within AC 0" 	9780
scalar ExamTaskNetwork_no_CCTV.BrowsingLaptop[1].wlan[0].mac 	"sent in TXOP " 	0
scalar ExamTaskNetwork_no_CCTV.BrowsingLaptop[1].wlan[0].mac 	"sentWithoutRetry AC 0" 	9585
scalar ExamTaskNetwork_no_CCTV.BrowsingLaptop[1].wlan[0].mac 	"numGivenUp AC 0" 	0
scalar ExamTaskNetwork_no_CCTV.BrowsingLaptop[1].wlan[0].mac 	"numDropped AC 0" 	0
scalar ExamTaskNetwork_no_CCTV.BrowsingLaptop[1].wlan[0].mac 	rcvdPkFromHL:count 	9792
attr interpolationmode  none
attr source  packetReceivedFromUpper
attr title  "packets received from higher layer, count"
scalar ExamTaskNetwork_no_CCTV.BrowsingLaptop[1].wlan[0].mac 	rcvdPkFromHL:sum(packetBytes) 	959436
attr interpolationmode  none
attr source  packetReceivedFromUpper
attr title  "packets received from higher layer, sum(packetBytes)"
scalar ExamTaskNetwork_no_CCTV.BrowsingLaptop[1].wlan[0].mac 	passedUpPk:count 	28179
attr interpolationmode  none
attr source  packetSentToUpper
attr title  "packets passed to higher layer, count"
scalar ExamTaskNetwork_no_CCTV.BrowsingLaptop[1].wlan[0].mac 	passedUpPk:sum(packetBytes) 	16007025
attr interpolationmode  none
attr source  packetSentToUpper
attr title  "packets passed to higher layer, sum(packetBytes)"
scalar ExamTaskNetwork_no_CCTV.BrowsingLaptop[1].wlan[0].mac 	rcvdPkFromLL:count 	3734656
attr interpolationmode  none
attr source  packetReceivedFromLower
attr title  "packets received from lower layer, count"
scalar ExamTaskNetwork_no_CCTV.BrowsingLaptop[1].wlan[0].mac 	rcvdPkFromLL:sum(packetBytes) 	1434742264
attr interpolationmode  none
attr source  packetReceivedFromLower
attr title  "packets received from lower layer, sum(packetBytes)"
scalar ExamTaskNetwork_no_CCTV.BrowsingLaptop[1].wlan[0].mac 	sentDownPk:count 	28499
attr interpolationmode  none
attr source  packetSentToLower
attr title  "packets sent to lower layer, count"
scalar ExamTaskNetwork_no_CCTV.BrowsingLaptop[1].wlan[0].mac 	sentDownPk:sum(packetBytes) 	1285452
attr interpolationmode  none
attr source  packetSentToLower
attr title  "packets sent to lower layer, sum(packetBytes)"
scalar ExamTaskNetwork_no_CCTV.BrowsingLaptop[1].wlan[0].radio 	lossRate:min 	0
attr interpolationmode  backward-sample-hold
attr title  "packet loss rate, min"
scalar ExamTaskNetwork_no_CCTV.BrowsingLaptop[1].wlan[0].radio 	lossRate:max 	0.28
attr interpolationmode  backward-sample-hold
attr title  "packet loss rate, max"
scalar ExamTaskNetwork_no_CCTV.BrowsingLaptop[1].wlan[0].radio 	lossRate:timeavg 	0.013626642957343
attr interpolationmode  backward-sample-hold
attr title  "packet loss rate, timeavg"
statistic ExamTaskNetwork_no_CCTV.BrowsingLaptop[1].wlan[0].radio 	channelNo:histogram
field count 1
field mean 0
field stddev -nan
field sum 0
field sqrsum 0
field min 0
field max 0
attr interpolationmode  sample-hold
attr title  "channel no, histogram"
bin	-INF	0
bin	-0.5	0
bin	-0.46666666666667	0
bin	-0.43333333333333	0
bin	-0.4	0
bin	-0.36666666666667	0
bin	-0.33333333333333	0
bin	-0.3	0
bin	-0.26666666666667	0
bin	-0.23333333333333	0
bin	-0.2	0
bin	-0.16666666666667	0
bin	-0.13333333333333	0
bin	-0.1	0
bin	-0.066666666666667	0
bin	-0.033333333333333	0
bin	0	1
bin	0.033333333333333	0
bin	0.066666666666667	0
bin	0.1	0
bin	0.13333333333333	0
bin	0.16666666666667	0
bin	0.2	0
bin	0.23333333333333	0
bin	0.26666666666667	0
bin	0.3	0
bin	0.33333333333333	0
bin	0.36666666666667	0
bin	0.4	0
bin	0.43333333333333	0
bin	0.46666666666667	0
bin	0.5	0
scalar ExamTaskNetwork_no_CCTV.BrowsingLaptop[1].wlan[0].radio 	radioState:count 	7526610
attr interpolationmode  sample-hold
attr title  "radio state (enum), count"
scalar ExamTaskNetwork_no_CCTV.BrowsingLaptop[1].wlan[0].radio 	bitrate:min 	54000000
attr interpolationmode  sample-hold
attr title  "tx bitrate, min"
attr unit  bps
scalar ExamTaskNetwork_no_CCTV.BrowsingLaptop[1].wlan[0].radio 	bitrate:max 	54000000
attr interpolationmode  sample-hold
attr title  "tx bitrate, max"
attr unit  bps
scalar ExamTaskNetwork_no_CCTV.BrowsingLaptop[1].wlan[0].radio 	bitrate:timeavg 	54000000
attr interpolationmode  sample-hold
attr title  "tx bitrate, timeavg"
attr unit  bps
scalar ExamTaskNetwork_no_CCTV.BrowsingLaptop[1].tcpApp[0] 	numActiveSessions:max 	1
attr interpolationmode  sample-hold
attr source  sum(connect)
attr title  "number of active sessions, max"
scalar ExamTaskNetwork_no_CCTV.BrowsingLaptop[1].tcpApp[0] 	numActiveSessions:timeavg 	0.57262768997453
attr interpolationmode  sample-hold
attr source  sum(connect)
attr title  "number of active sessions, timeavg"
scalar ExamTaskNetwork_no_CCTV.BrowsingLaptop[1].tcpApp[0] 	numSessions:last 	18
attr source  sum(connect+1)/2
attr title  "total number of sessions, last"
scalar ExamTaskNetwork_no_CCTV.BrowsingLaptop[1].tcpApp[0] 	sentPk:count 	18
attr interpolationmode  none
attr source  sentPk
attr title  "packets sent, count"
scalar ExamTaskNetwork_no_CCTV.BrowsingLaptop[1].tcpApp[0] 	sentPk:sum(packetBytes) 	147456
attr interpolationmode  none
attr source  sentPk
attr title  "packets sent, sum(packetBytes)"
scalar ExamTaskNetwork_no_CCTV.BrowsingLaptop[1].tcpApp[0] 	rcvdPk:count 	18
attr interpolationmode  none
attr source  rcvdPk
attr title  "packets received, count"
scalar ExamTaskNetwork_no_CCTV.BrowsingLaptop[1].tcpApp[0] 	rcvdPk:sum(packetBytes) 	12651142
attr interpolationmode  none
attr source  rcvdPk
attr title  "packets received, sum(packetBytes)"
statistic ExamTaskNetwork_no_CCTV.BrowsingLaptop[1].tcpApp[0] 	endToEndDelay:histogram
field count 18
field mean 31.599724939002
field stddev 29.369885313534
field sum 568.79504890204
field sqrsum 32637.799868583
field min 0.868475647336
field max 104.28716742747
attr interpolationmode  none
attr source  messageAge(rcvdPk)
attr title  "end-to-end delay, histogram"
attr unit  s
bin	-INF	0
bin	-50.840870242729	0
bin	-43.94629079072	0
bin	-37.051711338712	0
bin	-30.157131886703	0
bin	-23.262552434694	0
bin	-16.367972982686	0
bin	-9.473393530677	0
bin	-2.5788140786683	1
bin	4.3157653733403	3
bin	11.210344825349	5
bin	18.104924277358	1
bin	24.999503729366	0
bin	31.894083181375	3
bin	38.788662633384	0
bin	45.683242085392	1
bin	52.577821537401	2
bin	59.47240098941	0
bin	66.366980441418	0
bin	73.261559893427	0
bin	80.156139345436	1
bin	87.050718797444	0
bin	93.945298249453	0
bin	100.83987770146	1
bin	107.73445715347	0
bin	114.62903660548	0
bin	121.52361605749	0
bin	128.4181955095	0
bin	135.3127749615	0
bin	142.20735441351	0
bin	149.10193386552	0
bin	155.99651331753	0
scalar ExamTaskNetwork_no_CCTV.BrowsingLaptop[2].networkLayer.arp 	initiatedARPResolution:count 	8
attr title  "ARP initiated resolutions, count"
scalar ExamTaskNetwork_no_CCTV.BrowsingLaptop[2].networkLayer.arp 	sentReply:count 	3
attr title  "ARP replies sent, count"
scalar ExamTaskNetwork_no_CCTV.BrowsingLaptop[2].networkLayer.arp 	sentReq:count 	8
attr title  "ARP request sent, count"
scalar ExamTaskNetwork_no_CCTV.BrowsingLaptop[2].networkLayer.arp 	failedARPResolution:count 	0
attr title  "ARP failed resolutions, count"
scalar ExamTaskNetwork_no_CCTV.BrowsingLaptop[2].networkLayer.arp 	completedARPResolution:count 	108
attr title  "ARP completed resolutions, count"
scalar ExamTaskNetwork_no_CCTV.BrowsingLaptop[2].lo0.lo 	rcvdPkFromHL:count 	0
attr interpolationmode  none
attr source  packetReceivedFromUpper
attr title  "packets received from higher layer, count"
scalar ExamTaskNetwork_no_CCTV.BrowsingLaptop[2].lo0.lo 	rcvdPkFromHL:sum(packetBytes) 	0
attr interpolationmode  none
attr source  packetReceivedFromUpper
attr title  "packets received from higher layer, sum(packetBytes)"
scalar ExamTaskNetwork_no_CCTV.BrowsingLaptop[2].lo0.lo 	passedUpPk:count 	0
attr interpolationmode  none
attr source  packetSentToUpper
attr title  "packets passed to higher layer, count"
scalar ExamTaskNetwork_no_CCTV.BrowsingLaptop[2].lo0.lo 	passedUpPk:sum(packetBytes) 	0
attr interpolationmode  none
attr source  packetSentToUpper
attr title  "packets passed to higher layer, sum(packetBytes)"
scalar ExamTaskNetwork_no_CCTV.BrowsingLaptop[2].lo0.lo 	droppedPkBitError:count 	0
attr interpolationmode  none
attr source  dropPkBitError
attr title  "packets dropped/bit error, count"
scalar ExamTaskNetwork_no_CCTV.BrowsingLaptop[2].lo0.lo 	droppedPkBitError:sum(packetBytes) 	0
attr interpolationmode  none
attr source  dropPkBitError
attr title  "packets dropped/bit error, sum(packetBytes)"
scalar ExamTaskNetwork_no_CCTV.BrowsingLaptop[2].wlan[0].agent 	dropConfirm:count 	0
attr title  "dropped confirms, count"
scalar ExamTaskNetwork_no_CCTV.BrowsingLaptop[2].wlan[0].agent 	acceptConfirm:count 	36
attr title  "accepted confirms, count"
scalar ExamTaskNetwork_no_CCTV.BrowsingLaptop[2].wlan[0].agent 	sentRequest:count 	36
attr title  "sent requests, count"
scalar ExamTaskNetwork_no_CCTV.BrowsingLaptop[2].wlan[0].mgmt 	dropPkByQueue:count 	0
attr interpolationmode  none
attr source  dropPkByQueue
attr title  "packets dropped by queue, count"
scalar ExamTaskNetwork_no_CCTV.BrowsingLaptop[2].wlan[0].mgmt 	dropPkByQueue:sum(packetBytes) 	0
attr interpolationmode  none
attr source  dropPkByQueue
attr title  "packets dropped by queue, sum(packetBytes)"
scalar ExamTaskNetwork_no_CCTV.BrowsingLaptop[2].wlan[0].mgmt 	dataQueueLen:max 	2
attr interpolationmode  sample-hold
attr title  "data queue length, max"
scalar ExamTaskNetwork_no_CCTV.BrowsingLaptop[2].wlan[0].mgmt 	dataQueueLen:timeavg 	4.4293505554098e-06
attr interpolationmode  sample-hold
attr title  "data queue length, timeavg"
scalar ExamTaskNetwork_no_CCTV.BrowsingLaptop[2].wlan[0].mac 	"number of received packets" 	18936
scalar ExamTaskNetwork_no_CCTV.BrowsingLaptop[2].wlan[0].mac 	"number of collisions" 	51256
scalar ExamTaskNetwork_no_CCTV.BrowsingLaptop[2].wlan[0].mac 	"number of internal collisions" 	0
scalar ExamTaskNetwork_no_CCTV.BrowsingLaptop[2].wlan[0].mac 	"number of retry for AC 0" 	110
scalar ExamTaskNetwork_no_CCTV.BrowsingLaptop[2].wlan[0].mac 	"sent and received bits" 	7803216
scalar ExamTaskNetwork_no_CCTV.BrowsingLaptop[2].wlan[0].mac 	"sent packet within AC 0" 	9328
scalar ExamTaskNetwork_no_CCTV.BrowsingLaptop[2].wlan[0].mac 	"sent in TXOP " 	0
scalar ExamTaskNetwork_no_CCTV.BrowsingLaptop[2].wlan[0].mac 	"sentWithoutRetry AC 0" 	9252
scalar ExamTaskNetwork_no_CCTV.BrowsingLaptop[2].wlan[0].mac 	"numGivenUp AC 0" 	0
scalar ExamTaskNetwork_no_CCTV.BrowsingLaptop[2].wlan[0].mac 	"numDropped AC 0" 	0
scalar ExamTaskNetwork_no_CCTV.BrowsingLaptop[2].wlan[0].mac 	rcvdPkFromHL:count 	9340
attr interpolationmode  none
attr source  packetReceivedFromUpper
attr title  "packets received from higher layer, count"
scalar ExamTaskNetwork_no_CCTV.BrowsingLaptop[2].wlan[0].mac 	rcvdPkFromHL:sum(packetBytes) 	975402
attr interpolationmode  none
attr source  packetReceivedFromUpper
attr title  "packets received from higher layer, sum(packetBytes)"
scalar ExamTaskNetwork_no_CCTV.BrowsingLaptop[2].wlan[0].mac 	passedUpPk:count 	28655
attr interpolationmode  none
attr source  packetSentToUpper
attr title  "packets passed to higher layer, count"
scalar ExamTaskNetwork_no_CCTV.BrowsingLaptop[2].wlan[0].mac 	passedUpPk:sum(packetBytes) 	16392769
attr interpolationmode  none
attr source  packetSentToUpper
attr title  "packets passed to higher layer, sum(packetBytes)"
scalar ExamTaskNetwork_no_CCTV.BrowsingLaptop[2].wlan[0].mac 	rcvdPkFromLL:count 	3734769
attr interpolationmode  none
attr source  packetReceivedFromLower
attr title  "packets received from lower layer, count"
scalar ExamTaskNetwork_no_CCTV.BrowsingLaptop[2].wlan[0].mac 	rcvdPkFromLL:sum(packetBytes) 	1435176719
attr interpolationmode  none
attr source  packetReceivedFromLower
attr title  "packets received from lower layer, sum(packetBytes)"
scalar ExamTaskNetwork_no_CCTV.BrowsingLaptop[2].wlan[0].mac 	sentDownPk:count 	28386
attr interpolationmode  none
attr source  packetSentToLower
attr title  "packets sent to lower layer, count"
scalar ExamTaskNetwork_no_CCTV.BrowsingLaptop[2].wlan[0].mac 	sentDownPk:sum(packetBytes) 	1304902
attr interpolationmode  none
attr source  packetSentToLower
attr title  "packets sent to lower layer, sum(packetBytes)"
scalar ExamTaskNetwork_no_CCTV.BrowsingLaptop[2].wlan[0].radio 	lossRate:min 	0
attr interpolationmode  backward-sample-hold
attr title  "packet loss rate, min"
scalar ExamTaskNetwork_no_CCTV.BrowsingLaptop[2].wlan[0].radio 	lossRate:max 	0.28
attr interpolationmode  backward-sample-hold
attr title  "packet loss rate, max"
scalar ExamTaskNetwork_no_CCTV.BrowsingLaptop[2].wlan[0].radio 	lossRate:timeavg 	0.013633917810088
attr interpolationmode  backward-sample-hold
attr title  "packet loss rate, timeavg"
statistic ExamTaskNetwork_no_CCTV.BrowsingLaptop[2].wlan[0].radio 	channelNo:histogram
field count 1
field mean 0
field stddev -nan
field sum 0
field sqrsum 0
field min 0
field max 0
attr interpolationmode  sample-hold
attr title  "channel no, histogram"
bin	-INF	0
bin	-0.5	0
bin	-0.46666666666667	0
bin	-0.43333333333333	0
bin	-0.4	0
bin	-0.36666666666667	0
bin	-0.33333333333333	0
bin	-0.3	0
bin	-0.26666666666667	0
bin	-0.23333333333333	0
bin	-0.2	0
bin	-0.16666666666667	0
bin	-0.13333333333333	0
bin	-0.1	0
bin	-0.066666666666667	0
bin	-0.033333333333333	0
bin	0	1
bin	0.033333333333333	0
bin	0.066666666666667	0
bin	0.1	0
bin	0.13333333333333	0
bin	0.16666666666667	0
bin	0.2	0
bin	0.23333333333333	0
bin	0.26666666666667	0
bin	0.3	0
bin	0.33333333333333	0
bin	0.36666666666667	0
bin	0.4	0
bin	0.43333333333333	0
bin	0.46666666666667	0
bin	0.5	0
scalar ExamTaskNetwork_no_CCTV.BrowsingLaptop[2].wlan[0].radio 	radioState:count 	7526446
attr interpolationmode  sample-hold
attr title  "radio state (enum), count"
scalar ExamTaskNetwork_no_CCTV.BrowsingLaptop[2].wlan[0].radio 	bitrate:min 	54000000
attr interpolationmode  sample-hold
attr title  "tx bitrate, min"
attr unit  bps
scalar ExamTaskNetwork_no_CCTV.BrowsingLaptop[2].wlan[0].radio 	bitrate:max 	54000000
attr interpolationmode  sample-hold
attr title  "tx bitrate, max"
attr unit  bps
scalar ExamTaskNetwork_no_CCTV.BrowsingLaptop[2].wlan[0].radio 	bitrate:timeavg 	54000000
attr interpolationmode  sample-hold
attr title  "tx bitrate, timeavg"
attr unit  bps
scalar ExamTaskNetwork_no_CCTV.BrowsingLaptop[2].tcpApp[0] 	numActiveSessions:max 	1
attr interpolationmode  sample-hold
attr source  sum(connect)
attr title  "number of active sessions, max"
scalar ExamTaskNetwork_no_CCTV.BrowsingLaptop[2].tcpApp[0] 	numActiveSessions:timeavg 	0.49344619171392
attr interpolationmode  sample-hold
attr source  sum(connect)
attr title  "number of active sessions, timeavg"
scalar ExamTaskNetwork_no_CCTV.BrowsingLaptop[2].tcpApp[0] 	numSessions:last 	25
attr source  sum(connect+1)/2
attr title  "total number of sessions, last"
scalar ExamTaskNetwork_no_CCTV.BrowsingLaptop[2].tcpApp[0] 	sentPk:count 	25
attr interpolationmode  none
attr source  sentPk
attr title  "packets sent, count"
scalar ExamTaskNetwork_no_CCTV.BrowsingLaptop[2].tcpApp[0] 	sentPk:sum(packetBytes) 	204800
attr interpolationmode  none
attr source  sentPk
attr title  "packets sent, sum(packetBytes)"
scalar ExamTaskNetwork_no_CCTV.BrowsingLaptop[2].tcpApp[0] 	rcvdPk:count 	24
attr interpolationmode  none
attr source  rcvdPk
attr title  "packets received, count"
scalar ExamTaskNetwork_no_CCTV.BrowsingLaptop[2].tcpApp[0] 	rcvdPk:sum(packetBytes) 	12873897
attr interpolationmode  none
attr source  rcvdPk
attr title  "packets received, sum(packetBytes)"
statistic ExamTaskNetwork_no_CCTV.BrowsingLaptop[2].tcpApp[0] 	endToEndDelay:histogram
field count 24
field mean 19.258063772497
field stddev 17.061552692736
field sum 462.19353053993
field sqrsum 15596.173832975
field min 2.026586335365
field max 66.627031319972
attr interpolationmode  none
attr source  messageAge(rcvdPk)
attr title  "end-to-end delay, histogram"
attr unit  s
bin	-INF	0
bin	-30.273636156939	0
bin	-25.966939824631	0
bin	-21.660243492324	0
bin	-17.353547160017	0
bin	-13.04685082771	0
bin	-8.7401544954028	0
bin	-4.4334581630957	0
bin	-0.12676183078857	4
bin	4.1799345015186	3
bin	8.4866308338257	4
bin	12.793327166133	2
bin	17.10002349844	3
bin	21.406719830747	1
bin	25.713416163054	2
bin	30.020112495361	1
bin	34.326808827669	0
bin	38.633505159976	2
bin	42.940201492283	0
bin	47.24689782459	0
bin	51.553594156897	1
bin	55.860290489204	0
bin	60.166986821511	0
bin	64.473683153818	1
bin	68.780379486126	0
bin	73.087075818433	0
bin	77.39377215074	0
bin	81.700468483047	0
bin	86.007164815354	0
bin	90.313861147661	0
bin	94.620557479968	0
bin	98.927253812276	0
scalar ExamTaskNetwork_no_CCTV.BrowsingLaptop[3].networkLayer.arp 	initiatedARPResolution:count 	8
attr title  "ARP initiated resolutions, count"
scalar ExamTaskNetwork_no_CCTV.BrowsingLaptop[3].networkLayer.arp 	sentReply:count 	4
attr title  "ARP replies sent, count"
scalar ExamTaskNetwork_no_CCTV.BrowsingLaptop[3].networkLayer.arp 	sentReq:count 	9
attr title  "ARP request sent, count"
scalar ExamTaskNetwork_no_CCTV.BrowsingLaptop[3].networkLayer.arp 	failedARPResolution:count 	0
attr title  "ARP failed resolutions, count"
scalar ExamTaskNetwork_no_CCTV.BrowsingLaptop[3].networkLayer.arp 	completedARPResolution:count 	129
attr title  "ARP completed resolutions, count"
scalar ExamTaskNetwork_no_CCTV.BrowsingLaptop[3].lo0.lo 	rcvdPkFromHL:count 	0
attr interpolationmode  none
attr source  packetReceivedFromUpper
attr title  "packets received from higher layer, count"
scalar ExamTaskNetwork_no_CCTV.BrowsingLaptop[3].lo0.lo 	rcvdPkFromHL:sum(packetBytes) 	0
attr interpolationmode  none
attr source  packetReceivedFromUpper
attr title  "packets received from higher layer, sum(packetBytes)"
scalar ExamTaskNetwork_no_CCTV.BrowsingLaptop[3].lo0.lo 	passedUpPk:count 	0
attr interpolationmode  none
attr source  packetSentToUpper
attr title  "packets passed to higher layer, count"
scalar ExamTaskNetwork_no_CCTV.BrowsingLaptop[3].lo0.lo 	passedUpPk:sum(packetBytes) 	0
attr interpolationmode  none
attr source  packetSentToUpper
attr title  "packets passed to higher layer, sum(packetBytes)"
scalar ExamTaskNetwork_no_CCTV.BrowsingLaptop[3].lo0.lo 	droppedPkBitError:count 	0
attr interpolationmode  none
attr source  dropPkBitError
attr title  "packets dropped/bit error, count"
scalar ExamTaskNetwork_no_CCTV.BrowsingLaptop[3].lo0.lo 	droppedPkBitError:sum(packetBytes) 	0
attr interpolationmode  none
attr source  dropPkBitError
attr title  "packets dropped/bit error, sum(packetBytes)"
scalar ExamTaskNetwork_no_CCTV.BrowsingLaptop[3].wlan[0].agent 	dropConfirm:count 	0
attr title  "dropped confirms, count"
scalar ExamTaskNetwork_no_CCTV.BrowsingLaptop[3].wlan[0].agent 	acceptConfirm:count 	36
attr title  "accepted confirms, count"
scalar ExamTaskNetwork_no_CCTV.BrowsingLaptop[3].wlan[0].agent 	sentRequest:count 	36
attr title  "sent requests, count"
scalar ExamTaskNetwork_no_CCTV.BrowsingLaptop[3].wlan[0].mgmt 	dropPkByQueue:count 	694
attr interpolationmode  none
attr source  dropPkByQueue
attr title  "packets dropped by queue, count"
scalar ExamTaskNetwork_no_CCTV.BrowsingLaptop[3].wlan[0].mgmt 	dropPkByQueue:sum(packetBytes) 	67964
attr interpolationmode  none
attr source  dropPkByQueue
attr title  "packets dropped by queue, sum(packetBytes)"
scalar ExamTaskNetwork_no_CCTV.BrowsingLaptop[3].wlan[0].mgmt 	dataQueueLen:max 	50
attr interpolationmode  sample-hold
attr title  "data queue length, max"
scalar ExamTaskNetwork_no_CCTV.BrowsingLaptop[3].wlan[0].mgmt 	dataQueueLen:timeavg 	0.018296503478242
attr interpolationmode  sample-hold
attr title  "data queue length, timeavg"
scalar ExamTaskNetwork_no_CCTV.BrowsingLaptop[3].wlan[0].mac 	"number of received packets" 	22314
scalar ExamTaskNetwork_no_CCTV.BrowsingLaptop[3].wlan[0].mac 	"number of collisions" 	51087
scalar ExamTaskNetwork_no_CCTV.BrowsingLaptop[3].wlan[0].mac 	"number of internal collisions" 	0
scalar ExamTaskNetwork_no_CCTV.BrowsingLaptop[3].wlan[0].mac 	"number of retry for AC 0" 	368
scalar ExamTaskNetwork_no_CCTV.BrowsingLaptop[3].wlan[0].mac 	"sent and received bits" 	9093872
scalar ExamTaskNetwork_no_CCTV.BrowsingLaptop[3].wlan[0].mac 	"sent packet within AC 0" 	11489
scalar ExamTaskNetwork_no_CCTV.BrowsingLaptop[3].wlan[0].mac 	"sent in TXOP " 	0
scalar ExamTaskNetwork_no_CCTV.BrowsingLaptop[3].wlan[0].mac 	"sentWithoutRetry AC 0" 	11187
scalar ExamTaskNetwork_no_CCTV.BrowsingLaptop[3].wlan[0].mac 	"numGivenUp AC 0" 	0
scalar ExamTaskNetwork_no_CCTV.BrowsingLaptop[3].wlan[0].mac 	"numDropped AC 0" 	0
scalar ExamTaskNetwork_no_CCTV.BrowsingLaptop[3].wlan[0].mac 	rcvdPkFromHL:count 	11501
attr interpolationmode  none
attr source  packetReceivedFromUpper
attr title  "packets received from higher layer, count"
scalar ExamTaskNetwork_no_CCTV.BrowsingLaptop[3].wlan[0].mac 	rcvdPkFromHL:sum(packetBytes) 	1136734
attr interpolationmode  none
attr source  packetReceivedFromUpper
attr title  "packets received from higher layer, sum(packetBytes)"
scalar ExamTaskNetwork_no_CCTV.BrowsingLaptop[3].wlan[0].mac 	passedUpPk:count 	32036
attr interpolationmode  none
attr source  packetSentToUpper
attr title  "packets passed to higher layer, count"
scalar ExamTaskNetwork_no_CCTV.BrowsingLaptop[3].wlan[0].mac 	passedUpPk:sum(packetBytes) 	19716910
attr interpolationmode  none
attr source  packetSentToUpper
attr title  "packets passed to higher layer, sum(packetBytes)"
scalar ExamTaskNetwork_no_CCTV.BrowsingLaptop[3].wlan[0].mac 	rcvdPkFromLL:count 	3728972
attr interpolationmode  none
attr source  packetReceivedFromLower
attr title  "packets received from lower layer, count"
scalar ExamTaskNetwork_no_CCTV.BrowsingLaptop[3].wlan[0].mac 	rcvdPkFromLL:sum(packetBytes) 	1434440893
attr interpolationmode  none
attr source  packetReceivedFromLower
attr title  "packets received from lower layer, sum(packetBytes)"
scalar ExamTaskNetwork_no_CCTV.BrowsingLaptop[3].wlan[0].mac 	sentDownPk:count 	34183
attr interpolationmode  none
attr source  packetSentToLower
attr title  "packets sent to lower layer, count"
scalar ExamTaskNetwork_no_CCTV.BrowsingLaptop[3].wlan[0].mac 	sentDownPk:sum(packetBytes) 	1512788
attr interpolationmode  none
attr source  packetSentToLower
attr title  "packets sent to lower layer, sum(packetBytes)"
scalar ExamTaskNetwork_no_CCTV.BrowsingLaptop[3].wlan[0].radio 	lossRate:min 	0
attr interpolationmode  backward-sample-hold
attr title  "packet loss rate, min"
scalar ExamTaskNetwork_no_CCTV.BrowsingLaptop[3].wlan[0].radio 	lossRate:max 	0.24
attr interpolationmode  backward-sample-hold
attr title  "packet loss rate, max"
scalar ExamTaskNetwork_no_CCTV.BrowsingLaptop[3].wlan[0].radio 	lossRate:timeavg 	0.013601046304611
attr interpolationmode  backward-sample-hold
attr title  "packet loss rate, timeavg"
statistic ExamTaskNetwork_no_CCTV.BrowsingLaptop[3].wlan[0].radio 	channelNo:histogram
field count 1
field mean 0
field stddev -nan
field sum 0
field sqrsum 0
field min 0
field max 0
attr interpolationmode  sample-hold
attr title  "channel no, histogram"
bin	-INF	0
bin	-0.5	0
bin	-0.46666666666667	0
bin	-0.43333333333333	0
bin	-0.4	0
bin	-0.36666666666667	0
bin	-0.33333333333333	0
bin	-0.3	0
bin	-0.26666666666667	0
bin	-0.23333333333333	0
bin	-0.2	0
bin	-0.16666666666667	0
bin	-0.13333333333333	0
bin	-0.1	0
bin	-0.066666666666667	0
bin	-0.033333333333333	0
bin	0	1
bin	0.033333333333333	0
bin	0.066666666666667	0
bin	0.1	0
bin	0.13333333333333	0
bin	0.16666666666667	0
bin	0.2	0
bin	0.23333333333333	0
bin	0.26666666666667	0
bin	0.3	0
bin	0.33333333333333	0
bin	0.36666666666667	0
bin	0.4	0
bin	0.43333333333333	0
bin	0.46666666666667	0
bin	0.5	0
scalar ExamTaskNetwork_no_CCTV.BrowsingLaptop[3].wlan[0].radio 	radioState:count 	7526756
attr interpolationmode  sample-hold
attr title  "radio state (enum), count"
scalar ExamTaskNetwork_no_CCTV.BrowsingLaptop[3].wlan[0].radio 	bitrate:min 	54000000
attr interpolationmode  sample-hold
attr title  "tx bitrate, min"
attr unit  bps
scalar ExamTaskNetwork_no_CCTV.BrowsingLaptop[3].wlan[0].radio 	bitrate:max 	54000000
attr interpolationmode  sample-hold
attr title  "tx bitrate, max"
attr unit  bps
scalar ExamTaskNetwork_no_CCTV.BrowsingLaptop[3].wlan[0].radio 	bitrate:timeavg 	54000000
attr interpolationmode  sample-hold
attr title  "tx bitrate, timeavg"
attr unit  bps
scalar ExamTaskNetwork_no_CCTV.BrowsingLaptop[3].tcpApp[0] 	numActiveSessions:max 	1
attr interpolationmode  sample-hold
attr source  sum(connect)
attr title  "number of active sessions, max"
scalar ExamTaskNetwork_no_CCTV.BrowsingLaptop[3].tcpApp[0] 	numActiveSessions:timeavg 	0.5342814590703
attr interpolationmode  sample-hold
attr source  sum(connect)
attr title  "number of active sessions, timeavg"
scalar ExamTaskNetwork_no_CCTV.BrowsingLaptop[3].tcpApp[0] 	numSessions:last 	22
attr source  sum(connect+1)/2
attr title  "total number of sessions, last"
scalar ExamTaskNetwork_no_CCTV.BrowsingLaptop[3].tcpApp[0] 	sentPk:count 	22
attr interpolationmode  none
attr source  sentPk
attr title  "packets sent, count"
scalar ExamTaskNetwork_no_CCTV.BrowsingLaptop[3].tcpApp[0] 	sentPk:sum(packetBytes) 	180224
attr interpolationmode  none
attr source  sentPk
attr title  "packets sent, sum(packetBytes)"
scalar ExamTaskNetwork_no_CCTV.BrowsingLaptop[3].tcpApp[0] 	rcvdPk:count 	22
attr interpolationmode  none
attr source  rcvdPk
attr title  "packets received, count"
scalar ExamTaskNetwork_no_CCTV.BrowsingLaptop[3].tcpApp[0] 	rcvdPk:sum(packetBytes) 	14026209
attr interpolationmode  none
attr source  rcvdPk
attr title  "packets received, sum(packetBytes)"
statistic ExamTaskNetwork_no_CCTV.BrowsingLaptop[3].tcpApp[0] 	endToEndDelay:histogram
field count 22
field mean 23.127402098595
field stddev 21.209286468623
field sum 508.8028461691
field sqrsum 21213.798494933
field min 3.110722509067
field max 87.447091635553
attr interpolationmode  none
attr source  messageAge(rcvdPk)
attr title  "end-to-end delay, histogram"
attr unit  s
bin	-INF	0
bin	-39.057462054176	0
bin	-33.435037445744	0
bin	-27.812612837311	0
bin	-22.190188228879	0
bin	-16.567763620446	0
bin	-10.945339012014	0
bin	-5.3229144035816	0
bin	0.2995102048508	2
bin	5.9219348132832	6
bin	11.544359421716	5
bin	17.166784030148	2
bin	22.78920863858	1
bin	28.411633247013	0
bin	34.034057855445	2
bin	39.656482463878	2
bin	45.27890707231	0
bin	50.901331680742	0
bin	56.523756289175	0
bin	62.146180897607	1
bin	67.76860550604	0
bin	73.391030114472	0
bin	79.013454722904	0
bin	84.635879331337	1
bin	90.258303939769	0
bin	95.880728548202	0
bin	101.50315315663	0
bin	107.12557776507	0
bin	112.7480023735	0
bin	118.37042698193	0
bin	123.99285159036	0
bin	129.6152761988	0
scalar ExamTaskNetwork_no_CCTV.BrowsingLaptop[4].networkLayer.arp 	initiatedARPResolution:count 	8
attr title  "ARP initiated resolutions, count"
scalar ExamTaskNetwork_no_CCTV.BrowsingLaptop[4].networkLayer.arp 	sentReply:count 	3
attr title  "ARP replies sent, count"
scalar ExamTaskNetwork_no_CCTV.BrowsingLaptop[4].networkLayer.arp 	sentReq:count 	9
attr title  "ARP request sent, count"
scalar ExamTaskNetwork_no_CCTV.BrowsingLaptop[4].networkLayer.arp 	failedARPResolution:count 	0
attr title  "ARP failed resolutions, count"
scalar ExamTaskNetwork_no_CCTV.BrowsingLaptop[4].networkLayer.arp 	completedARPResolution:count 	128
attr title  "ARP completed resolutions, count"
scalar ExamTaskNetwork_no_CCTV.BrowsingLaptop[4].lo0.lo 	rcvdPkFromHL:count 	0
attr interpolationmode  none
attr source  packetReceivedFromUpper
attr title  "packets received from higher layer, count"
scalar ExamTaskNetwork_no_CCTV.BrowsingLaptop[4].lo0.lo 	rcvdPkFromHL:sum(packetBytes) 	0
attr interpolationmode  none
attr source  packetReceivedFromUpper
attr title  "packets received from higher layer, sum(packetBytes)"
scalar ExamTaskNetwork_no_CCTV.BrowsingLaptop[4].lo0.lo 	passedUpPk:count 	0
attr interpolationmode  none
attr source  packetSentToUpper
attr title  "packets passed to higher layer, count"
scalar ExamTaskNetwork_no_CCTV.BrowsingLaptop[4].lo0.lo 	passedUpPk:sum(packetBytes) 	0
attr interpolationmode  none
attr source  packetSentToUpper
attr title  "packets passed to higher layer, sum(packetBytes)"
scalar ExamTaskNetwork_no_CCTV.BrowsingLaptop[4].lo0.lo 	droppedPkBitError:count 	0
attr interpolationmode  none
attr source  dropPkBitError
attr title  "packets dropped/bit error, count"
scalar ExamTaskNetwork_no_CCTV.BrowsingLaptop[4].lo0.lo 	droppedPkBitError:sum(packetBytes) 	0
attr interpolationmode  none
attr source  dropPkBitError
attr title  "packets dropped/bit error, sum(packetBytes)"
scalar ExamTaskNetwork_no_CCTV.BrowsingLaptop[4].wlan[0].agent 	dropConfirm:count 	0
attr title  "dropped confirms, count"
scalar ExamTaskNetwork_no_CCTV.BrowsingLaptop[4].wlan[0].agent 	acceptConfirm:count 	36
attr title  "accepted confirms, count"
scalar ExamTaskNetwork_no_CCTV.BrowsingLaptop[4].wlan[0].agent 	sentRequest:count 	36
attr title  "sent requests, count"
scalar ExamTaskNetwork_no_CCTV.BrowsingLaptop[4].wlan[0].mgmt 	dropPkByQueue:count 	0
attr interpolationmode  none
attr source  dropPkByQueue
attr title  "packets dropped by queue, count"
scalar ExamTaskNetwork_no_CCTV.BrowsingLaptop[4].wlan[0].mgmt 	dropPkByQueue:sum(packetBytes) 	0
attr interpolationmode  none
attr source  dropPkByQueue
attr title  "packets dropped by queue, sum(packetBytes)"
scalar ExamTaskNetwork_no_CCTV.BrowsingLaptop[4].wlan[0].mgmt 	dataQueueLen:max 	5
attr interpolationmode  sample-hold
attr title  "data queue length, max"
scalar ExamTaskNetwork_no_CCTV.BrowsingLaptop[4].wlan[0].mgmt 	dataQueueLen:timeavg 	2.2358439168536e-05
attr interpolationmode  sample-hold
attr title  "data queue length, timeavg"
scalar ExamTaskNetwork_no_CCTV.BrowsingLaptop[4].wlan[0].mac 	"number of received packets" 	17757
scalar ExamTaskNetwork_no_CCTV.BrowsingLaptop[4].wlan[0].mac 	"number of collisions" 	51252
scalar ExamTaskNetwork_no_CCTV.BrowsingLaptop[4].wlan[0].mac 	"number of internal collisions" 	0
scalar ExamTaskNetwork_no_CCTV.BrowsingLaptop[4].wlan[0].mac 	"number of retry for AC 0" 	92
scalar ExamTaskNetwork_no_CCTV.BrowsingLaptop[4].wlan[0].mac 	"sent and received bits" 	7326976
scalar ExamTaskNetwork_no_CCTV.BrowsingLaptop[4].wlan[0].mac 	"sent packet within AC 0" 	8795
scalar ExamTaskNetwork_no_CCTV.BrowsingLaptop[4].wlan[0].mac 	"sent in TXOP " 	0
scalar ExamTaskNetwork_no_CCTV.BrowsingLaptop[4].wlan[0].mac 	"sentWithoutRetry AC 0" 	8734
scalar ExamTaskNetwork_no_CCTV.BrowsingLaptop[4].wlan[0].mac 	"numGivenUp AC 0" 	0
scalar ExamTaskNetwork_no_CCTV.BrowsingLaptop[4].wlan[0].mac 	"numDropped AC 0" 	0
scalar ExamTaskNetwork_no_CCTV.BrowsingLaptop[4].wlan[0].mac 	rcvdPkFromHL:count 	8807
attr interpolationmode  none
attr source  packetReceivedFromUpper
attr title  "packets received from higher layer, count"
scalar ExamTaskNetwork_no_CCTV.BrowsingLaptop[4].wlan[0].mac 	rcvdPkFromHL:sum(packetBytes) 	915872
attr interpolationmode  none
attr source  packetReceivedFromUpper
attr title  "packets received from higher layer, sum(packetBytes)"
scalar ExamTaskNetwork_no_CCTV.BrowsingLaptop[4].wlan[0].mac 	passedUpPk:count 	27476
attr interpolationmode  none
attr source  packetSentToUpper
attr title  "packets passed to higher layer, count"
scalar ExamTaskNetwork_no_CCTV.BrowsingLaptop[4].wlan[0].mac 	passedUpPk:sum(packetBytes) 	15373059
attr interpolationmode  none
attr source  packetSentToUpper
attr title  "packets passed to higher layer, sum(packetBytes)"
scalar ExamTaskNetwork_no_CCTV.BrowsingLaptop[4].wlan[0].mac 	rcvdPkFromLL:count 	3736499
attr interpolationmode  none
attr source  packetReceivedFromLower
attr title  "packets received from lower layer, count"
scalar ExamTaskNetwork_no_CCTV.BrowsingLaptop[4].wlan[0].mac 	rcvdPkFromLL:sum(packetBytes) 	1435016421
attr interpolationmode  none
attr source  packetReceivedFromLower
attr title  "packets received from lower layer, sum(packetBytes)"
scalar ExamTaskNetwork_no_CCTV.BrowsingLaptop[4].wlan[0].mac 	sentDownPk:count 	26656
attr interpolationmode  none
attr source  packetSentToLower
attr title  "packets sent to lower layer, count"
scalar ExamTaskNetwork_no_CCTV.BrowsingLaptop[4].wlan[0].mac 	sentDownPk:sum(packetBytes) 	1200052
attr interpolationmode  none
attr source  packetSentToLower
attr title  "packets sent to lower layer, sum(packetBytes)"
scalar ExamTaskNetwork_no_CCTV.BrowsingLaptop[4].wlan[0].radio 	lossRate:min 	0
attr interpolationmode  backward-sample-hold
attr title  "packet loss rate, min"
scalar ExamTaskNetwork_no_CCTV.BrowsingLaptop[4].wlan[0].radio 	lossRate:max 	0.28
attr interpolationmode  backward-sample-hold
attr title  "packet loss rate, max"
scalar ExamTaskNetwork_no_CCTV.BrowsingLaptop[4].wlan[0].radio 	lossRate:timeavg 	0.013629621323392
attr interpolationmode  backward-sample-hold
attr title  "packet loss rate, timeavg"
statistic ExamTaskNetwork_no_CCTV.BrowsingLaptop[4].wlan[0].radio 	channelNo:histogram
field count 1
field mean 0
field stddev -nan
field sum 0
field sqrsum 0
field min 0
field max 0
attr interpolationmode  sample-hold
attr title  "channel no, histogram"
bin	-INF	0
bin	-0.5	0
bin	-0.46666666666667	0
bin	-0.43333333333333	0
bin	-0.4	0
bin	-0.36666666666667	0
bin	-0.33333333333333	0
bin	-0.3	0
bin	-0.26666666666667	0
bin	-0.23333333333333	0
bin	-0.2	0
bin	-0.16666666666667	0
bin	-0.13333333333333	0
bin	-0.1	0
bin	-0.066666666666667	0
bin	-0.033333333333333	0
bin	0	1
bin	0.033333333333333	0
bin	0.066666666666667	0
bin	0.1	0
bin	0.13333333333333	0
bin	0.16666666666667	0
bin	0.2	0
bin	0.23333333333333	0
bin	0.26666666666667	0
bin	0.3	0
bin	0.33333333333333	0
bin	0.36666666666667	0
bin	0.4	0
bin	0.43333333333333	0
bin	0.46666666666667	0
bin	0.5	0
scalar ExamTaskNetwork_no_CCTV.BrowsingLaptop[4].wlan[0].radio 	radioState:count 	7526417
attr interpolationmode  sample-hold
attr title  "radio state (enum), count"
scalar ExamTaskNetwork_no_CCTV.BrowsingLaptop[4].wlan[0].radio 	bitrate:min 	54000000
attr interpolationmode  sample-hold
attr title  "tx bitrate, min"
attr unit  bps
scalar ExamTaskNetwork_no_CCTV.BrowsingLaptop[4].wlan[0].radio 	bitrate:max 	54000000
attr interpolationmode  sample-hold
attr title  "tx bitrate, max"
attr unit  bps
scalar ExamTaskNetwork_no_CCTV.BrowsingLaptop[4].wlan[0].radio 	bitrate:timeavg 	54000000
attr interpolationmode  sample-hold
attr title  "tx bitrate, timeavg"
attr unit  bps
scalar ExamTaskNetwork_no_CCTV.BrowsingLaptop[4].tcpApp[0] 	numActiveSessions:max 	1
attr interpolationmode  sample-hold
attr source  sum(connect)
attr title  "number of active sessions, max"
scalar ExamTaskNetwork_no_CCTV.BrowsingLaptop[4].tcpApp[0] 	numActiveSessions:timeavg 	0.48460534508963
attr interpolationmode  sample-hold
attr source  sum(connect)
attr title  "number of active sessions, timeavg"
scalar ExamTaskNetwork_no_CCTV.BrowsingLaptop[4].tcpApp[0] 	numSessions:last 	23
attr source  sum(connect+1)/2
attr title  "total number of sessions, last"
scalar ExamTaskNetwork_no_CCTV.BrowsingLaptop[4].tcpApp[0] 	sentPk:count 	23
attr interpolationmode  none
attr source  sentPk
attr title  "packets sent, count"
scalar ExamTaskNetwork_no_CCTV.BrowsingLaptop[4].tcpApp[0] 	sentPk:sum(packetBytes) 	188416
attr interpolationmode  none
attr source  sentPk
attr title  "packets sent, sum(packetBytes)"
scalar ExamTaskNetwork_no_CCTV.BrowsingLaptop[4].tcpApp[0] 	rcvdPk:count 	22
attr interpolationmode  none
attr source  rcvdPk
attr title  "packets received, count"
scalar ExamTaskNetwork_no_CCTV.BrowsingLaptop[4].tcpApp[0] 	rcvdPk:sum(packetBytes) 	11087830
attr interpolationmode  none
attr source  rcvdPk
attr title  "packets received, sum(packetBytes)"
statistic ExamTaskNetwork_no_CCTV.BrowsingLaptop[4].tcpApp[0] 	endToEndDelay:histogram
field count 22
field mean 19.082699348249
field stddev 13.255868970584
field sum 419.81938566147
field sqrsum 11701.366422615
field min 0.859185722652
field max 55.698849535762
attr interpolationmode  none
attr source  messageAge(rcvdPk)
attr title  "end-to-end delay, histogram"
attr unit  s
bin	-INF	0
bin	-26.560646183903	0
bin	-22.904668596362	0
bin	-19.248691008822	0
bin	-15.592713421281	0
bin	-11.93673583374	0
bin	-8.2807582461997	0
bin	-4.624780658659	0
bin	-0.96880307111833	2
bin	2.6871745164223	3
bin	6.343152103963	0
bin	9.9991296915037	4
bin	13.655107279044	1
bin	17.311084866585	1
bin	20.967062454126	3
bin	24.623040041666	4
bin	28.279017629207	2
bin	31.934995216748	0
bin	35.590972804288	1
bin	39.246950391829	0
bin	42.90292797937	0
bin	46.55890556691	0
bin	50.214883154451	0
bin	53.870860741992	1
bin	57.526838329532	0
bin	61.182815917073	0
bin	64.838793504614	0
bin	68.494771092154	0
bin	72.150748679695	0
bin	75.806726267236	0
bin	79.462703854776	0
bin	83.118681442317	0
scalar ExamTaskNetwork_no_CCTV.BrowsingLaptop[5].networkLayer.arp 	initiatedARPResolution:count 	8
attr title  "ARP initiated resolutions, count"
scalar ExamTaskNetwork_no_CCTV.BrowsingLaptop[5].networkLayer.arp 	sentReply:count 	6
attr title  "ARP replies sent, count"
scalar ExamTaskNetwork_no_CCTV.BrowsingLaptop[5].networkLayer.arp 	sentReq:count 	8
attr title  "ARP request sent, count"
scalar ExamTaskNetwork_no_CCTV.BrowsingLaptop[5].networkLayer.arp 	failedARPResolution:count 	0
attr title  "ARP failed resolutions, count"
scalar ExamTaskNetwork_no_CCTV.BrowsingLaptop[5].networkLayer.arp 	completedARPResolution:count 	140
attr title  "ARP completed resolutions, count"
scalar ExamTaskNetwork_no_CCTV.BrowsingLaptop[5].lo0.lo 	rcvdPkFromHL:count 	0
attr interpolationmode  none
attr source  packetReceivedFromUpper
attr title  "packets received from higher layer, count"
scalar ExamTaskNetwork_no_CCTV.BrowsingLaptop[5].lo0.lo 	rcvdPkFromHL:sum(packetBytes) 	0
attr interpolationmode  none
attr source  packetReceivedFromUpper
attr title  "packets received from higher layer, sum(packetBytes)"
scalar ExamTaskNetwork_no_CCTV.BrowsingLaptop[5].lo0.lo 	passedUpPk:count 	0
attr interpolationmode  none
attr source  packetSentToUpper
attr title  "packets passed to higher layer, count"
scalar ExamTaskNetwork_no_CCTV.BrowsingLaptop[5].lo0.lo 	passedUpPk:sum(packetBytes) 	0
attr interpolationmode  none
attr source  packetSentToUpper
attr title  "packets passed to higher layer, sum(packetBytes)"
scalar ExamTaskNetwork_no_CCTV.BrowsingLaptop[5].lo0.lo 	droppedPkBitError:count 	0
attr interpolationmode  none
attr source  dropPkBitError
attr title  "packets dropped/bit error, count"
scalar ExamTaskNetwork_no_CCTV.BrowsingLaptop[5].lo0.lo 	droppedPkBitError:sum(packetBytes) 	0
attr interpolationmode  none
attr source  dropPkBitError
attr title  "packets dropped/bit error, sum(packetBytes)"
scalar ExamTaskNetwork_no_CCTV.BrowsingLaptop[5].wlan[0].agent 	dropConfirm:count 	0
attr title  "dropped confirms, count"
scalar ExamTaskNetwork_no_CCTV.BrowsingLaptop[5].wlan[0].agent 	acceptConfirm:count 	36
attr title  "accepted confirms, count"
scalar ExamTaskNetwork_no_CCTV.BrowsingLaptop[5].wlan[0].agent 	sentRequest:count 	36
attr title  "sent requests, count"
scalar ExamTaskNetwork_no_CCTV.BrowsingLaptop[5].wlan[0].mgmt 	dropPkByQueue:count 	0
attr interpolationmode  none
attr source  dropPkByQueue
attr title  "packets dropped by queue, count"
scalar ExamTaskNetwork_no_CCTV.BrowsingLaptop[5].wlan[0].mgmt 	dropPkByQueue:sum(packetBytes) 	0
attr interpolationmode  none
attr source  dropPkByQueue
attr title  "packets dropped by queue, sum(packetBytes)"
scalar ExamTaskNetwork_no_CCTV.BrowsingLaptop[5].wlan[0].mgmt 	dataQueueLen:max 	48
attr interpolationmode  sample-hold
attr title  "data queue length, max"
scalar ExamTaskNetwork_no_CCTV.BrowsingLaptop[5].wlan[0].mgmt 	dataQueueLen:timeavg 	0.010939102361989
attr interpolationmode  sample-hold
attr title  "data queue length, timeavg"
scalar ExamTaskNetwork_no_CCTV.BrowsingLaptop[5].wlan[0].mac 	"number of received packets" 	22106
scalar ExamTaskNetwork_no_CCTV.BrowsingLaptop[5].wlan[0].mac 	"number of collisions" 	51136
scalar ExamTaskNetwork_no_CCTV.BrowsingLaptop[5].wlan[0].mac 	"number of internal collisions" 	0
scalar ExamTaskNetwork_no_CCTV.BrowsingLaptop[5].wlan[0].mac 	"number of retry for AC 0" 	264
scalar ExamTaskNetwork_no_CCTV.BrowsingLaptop[5].wlan[0].mac 	"sent and received bits" 	9239328
scalar ExamTaskNetwork_no_CCTV.BrowsingLaptop[5].wlan[0].mac 	"sent packet within AC 0" 	11692
scalar ExamTaskNetwork_no_CCTV.BrowsingLaptop[5].wlan[0].mac 	"sent in TXOP " 	0
scalar ExamTaskNetwork_no_CCTV.BrowsingLaptop[5].wlan[0].mac 	"sentWithoutRetry AC 0" 	11478
scalar ExamTaskNetwork_no_CCTV.BrowsingLaptop[5].wlan[0].mac 	"numGivenUp AC 0" 	0
scalar ExamTaskNetwork_no_CCTV.BrowsingLaptop[5].wlan[0].mac 	"numDropped AC 0" 	0
scalar ExamTaskNetwork_no_CCTV.BrowsingLaptop[5].wlan[0].mac 	rcvdPkFromHL:count 	11704
attr interpolationmode  none
attr source  packetReceivedFromUpper
attr title  "packets received from higher layer, count"
scalar ExamTaskNetwork_no_CCTV.BrowsingLaptop[5].wlan[0].mac 	rcvdPkFromHL:sum(packetBytes) 	1154916
attr interpolationmode  none
attr source  packetReceivedFromUpper
attr title  "packets received from higher layer, sum(packetBytes)"
scalar ExamTaskNetwork_no_CCTV.BrowsingLaptop[5].wlan[0].mac 	passedUpPk:count 	31824
attr interpolationmode  none
attr source  packetSentToUpper
attr title  "packets passed to higher layer, count"
scalar ExamTaskNetwork_no_CCTV.BrowsingLaptop[5].wlan[0].mac 	passedUpPk:sum(packetBytes) 	19014209
attr interpolationmode  none
attr source  packetSentToUpper
attr title  "packets passed to higher layer, sum(packetBytes)"
scalar ExamTaskNetwork_no_CCTV.BrowsingLaptop[5].wlan[0].mac 	rcvdPkFromLL:count 	3729081
attr interpolationmode  none
attr source  packetReceivedFromLower
attr title  "packets received from lower layer, count"
scalar ExamTaskNetwork_no_CCTV.BrowsingLaptop[5].wlan[0].mac 	rcvdPkFromLL:sum(packetBytes) 	1434822859
attr interpolationmode  none
attr source  packetReceivedFromLower
attr title  "packets received from lower layer, sum(packetBytes)"
scalar ExamTaskNetwork_no_CCTV.BrowsingLaptop[5].wlan[0].mac 	sentDownPk:count 	34074
attr interpolationmode  none
attr source  packetSentToLower
attr title  "packets sent to lower layer, count"
scalar ExamTaskNetwork_no_CCTV.BrowsingLaptop[5].wlan[0].mac 	sentDownPk:sum(packetBytes) 	1503222
attr interpolationmode  none
attr source  packetSentToLower
attr title  "packets sent to lower layer, sum(packetBytes)"
scalar ExamTaskNetwork_no_CCTV.BrowsingLaptop[5].wlan[0].radio 	lossRate:min 	0
attr interpolationmode  backward-sample-hold
attr title  "packet loss rate, min"
scalar ExamTaskNetwork_no_CCTV.BrowsingLaptop[5].wlan[0].radio 	lossRate:max 	0.22
attr interpolationmode  backward-sample-hold
attr title  "packet loss rate, max"
scalar ExamTaskNetwork_no_CCTV.BrowsingLaptop[5].wlan[0].radio 	lossRate:timeavg 	0.013617017719064
attr interpolationmode  backward-sample-hold
attr title  "packet loss rate, timeavg"
statistic ExamTaskNetwork_no_CCTV.BrowsingLaptop[5].wlan[0].radio 	channelNo:histogram
field count 1
field mean 0
field stddev -nan
field sum 0
field sqrsum 0
field min 0
field max 0
attr interpolationmode  sample-hold
attr title  "channel no, histogram"
bin	-INF	0
bin	-0.5	0
bin	-0.46666666666667	0
bin	-0.43333333333333	0
bin	-0.4	0
bin	-0.36666666666667	0
bin	-0.33333333333333	0
bin	-0.3	0
bin	-0.26666666666667	0
bin	-0.23333333333333	0
bin	-0.2	0
bin	-0.16666666666667	0
bin	-0.13333333333333	0
bin	-0.1	0
bin	-0.066666666666667	0
bin	-0.033333333333333	0
bin	0	1
bin	0.033333333333333	0
bin	0.066666666666667	0
bin	0.1	0
bin	0.13333333333333	0
bin	0.16666666666667	0
bin	0.2	0
bin	0.23333333333333	0
bin	0.26666666666667	0
bin	0.3	0
bin	0.33333333333333	0
bin	0.36666666666667	0
bin	0.4	0
bin	0.43333333333333	0
bin	0.46666666666667	0
bin	0.5	0
scalar ExamTaskNetwork_no_CCTV.BrowsingLaptop[5].wlan[0].radio 	radioState:count 	7526647
attr interpolationmode  sample-hold
attr title  "radio state (enum), count"
scalar ExamTaskNetwork_no_CCTV.BrowsingLaptop[5].wlan[0].radio 	bitrate:min 	54000000
attr interpolationmode  sample-hold
attr title  "tx bitrate, min"
attr unit  bps
scalar ExamTaskNetwork_no_CCTV.BrowsingLaptop[5].wlan[0].radio 	bitrate:max 	54000000
attr interpolationmode  sample-hold
attr title  "tx bitrate, max"
attr unit  bps
scalar ExamTaskNetwork_no_CCTV.BrowsingLaptop[5].wlan[0].radio 	bitrate:timeavg 	54000000
attr interpolationmode  sample-hold
attr title  "tx bitrate, timeavg"
attr unit  bps
scalar ExamTaskNetwork_no_CCTV.BrowsingLaptop[5].tcpApp[0] 	numActiveSessions:max 	1
attr interpolationmode  sample-hold
attr source  sum(connect)
attr title  "number of active sessions, max"
scalar ExamTaskNetwork_no_CCTV.BrowsingLaptop[5].tcpApp[0] 	numActiveSessions:timeavg 	0.55543621918058
attr interpolationmode  sample-hold
attr source  sum(connect)
attr title  "number of active sessions, timeavg"
scalar ExamTaskNetwork_no_CCTV.BrowsingLaptop[5].tcpApp[0] 	numSessions:last 	22
attr source  sum(connect+1)/2
attr title  "total number of sessions, last"
scalar ExamTaskNetwork_no_CCTV.BrowsingLaptop[5].tcpApp[0] 	sentPk:count 	22
attr interpolationmode  none
attr source  sentPk
attr title  "packets sent, count"
scalar ExamTaskNetwork_no_CCTV.BrowsingLaptop[5].tcpApp[0] 	sentPk:sum(packetBytes) 	180224
attr interpolationmode  none
attr source  sentPk
attr title  "packets sent, sum(packetBytes)"
scalar ExamTaskNetwork_no_CCTV.BrowsingLaptop[5].tcpApp[0] 	rcvdPk:count 	22
attr interpolationmode  none
attr source  rcvdPk
attr title  "packets received, count"
scalar ExamTaskNetwork_no_CCTV.BrowsingLaptop[5].tcpApp[0] 	rcvdPk:sum(packetBytes) 	15219360
attr interpolationmode  none
attr source  rcvdPk
attr title  "packets received, sum(packetBytes)"
statistic ExamTaskNetwork_no_CCTV.BrowsingLaptop[5].tcpApp[0] 	endToEndDelay:histogram
field count 22
field mean 24.826648292445
field stddev 30.485839444394
field sum 546.18626243378
field sqrsum 33077.088778825
field min 0.547567040451
field max 134.87418621854
attr interpolationmode  none
attr source  messageAge(rcvdPk)
attr title  "end-to-end delay, histogram"
attr unit  s
bin	-INF	0
bin	-66.615742548593	0
bin	-57.660634603388	0
bin	-48.705526658182	0
bin	-39.750418712976	0
bin	-30.79531076777	0
bin	-21.840202822564	0
bin	-12.885094877358	0
bin	-3.929986932152	4
bin	5.025121013054	7
bin	13.98022895826	5
bin	22.935336903466	0
bin	31.890444848672	1
bin	40.845552793878	2
bin	49.800660739084	1
bin	58.75576868429	1
[...]
scalar ExamTaskNetwork_no_CCTV.MainRouter.eth[1].mac 	full-duplex 	1
scalar ExamTaskNetwork_no_CCTV.MainRouter.eth[1].mac 	"frames/sec sent" 	24.846999704989
scalar ExamTaskNetwork_no_CCTV.MainRouter.eth[1].mac 	"frames/sec rcvd" 	24.97999970341
scalar ExamTaskNetwork_no_CCTV.MainRouter.eth[1].mac 	"bits/sec sent" 	287242.14058954
scalar ExamTaskNetwork_no_CCTV.MainRouter.eth[1].mac 	"bits/sec rcvd" 	288780.68457127
scalar ExamTaskNetwork_no_CCTV.MainRouter.eth[1].mac 	"rx channel idle (%)" 	99.709620595448
scalar ExamTaskNetwork_no_CCTV.MainRouter.eth[1].mac 	"rx channel utilization (%)" 	0.29037940455229
scalar ExamTaskNetwork_no_CCTV.MainRouter.eth[1].mac 	rxPkFromHL:count 	24847
attr interpolationmode  none
attr source  rxPkFromHL
attr title  "packet bytes from higher layer, count"
scalar ExamTaskNetwork_no_CCTV.MainRouter.eth[1].mac 	rxPkFromHL:sum(packetBytes) 	35905268
attr interpolationmode  none
attr source  rxPkFromHL
attr title  "packet bytes from higher layer, sum(packetBytes)"
scalar ExamTaskNetwork_no_CCTV.MainRouter.eth[1].mac 	rxPausePkUnits:count 	0
attr interpolationmode  none
attr title  "pause units received, count"
scalar ExamTaskNetwork_no_CCTV.MainRouter.eth[1].mac 	rxPausePkUnits:sum 	0
attr interpolationmode  none
attr title  "pause units received, sum"
scalar ExamTaskNetwork_no_CCTV.MainRouter.eth[1].mac 	txPausePkUnits:count 	0
attr interpolationmode  none
attr title  "pause units sent, count"
scalar ExamTaskNetwork_no_CCTV.MainRouter.eth[1].mac 	txPausePkUnits:sum 	0
attr interpolationmode  none
attr title  "pause units sent, sum"
scalar ExamTaskNetwork_no_CCTV.MainRouter.eth[1].mac 	txPk:count 	24847
attr interpolationmode  none
attr source  txPk
attr title  "packets transmitted, count"
scalar ExamTaskNetwork_no_CCTV.MainRouter.eth[1].mac 	txPk:sum(packetBytes) 	35905268
attr interpolationmode  none
attr source  txPk
attr title  "packets transmitted, sum(packetBytes)"
scalar ExamTaskNetwork_no_CCTV.MainRouter.eth[1].mac 	droppedPkNotForUs:count 	0
attr interpolationmode  none
attr source  dropPkNotForUs
attr title  "packets dropped/not for us, count"
scalar ExamTaskNetwork_no_CCTV.MainRouter.eth[1].mac 	droppedPkNotForUs:sum(packetBytes) 	0
attr interpolationmode  none
attr source  dropPkNotForUs
attr title  "packets dropped/not for us, sum(packetBytes)"
scalar ExamTaskNetwork_no_CCTV.MainRouter.eth[1].mac 	passedUpPk:count 	24980
attr interpolationmode  none
attr source  packetSentToUpper
attr title  "packets passed to higher layer, count"
scalar ExamTaskNetwork_no_CCTV.MainRouter.eth[1].mac 	passedUpPk:sum(packetBytes) 	36097586
attr interpolationmode  none
attr source  packetSentToUpper
attr title  "packets passed to higher layer, sum(packetBytes)"
scalar ExamTaskNetwork_no_CCTV.MainRouter.eth[1].mac 	droppedPkBitError:count 	0
attr interpolationmode  none
attr source  dropPkBitError
attr title  "packets dropped/bit error, count"
scalar ExamTaskNetwork_no_CCTV.MainRouter.eth[1].mac 	droppedPkBitError:sum(packetBytes) 	0
attr interpolationmode  none
attr source  dropPkBitError
attr title  "packets dropped/bit error, sum(packetBytes)"
scalar ExamTaskNetwork_no_CCTV.MainRouter.eth[1].mac 	droppedPkIfaceDown:count 	0
attr interpolationmode  none
attr source  dropPkIfaceDown
attr title  "packets dropped/interface down, count"
scalar ExamTaskNetwork_no_CCTV.MainRouter.eth[1].mac 	droppedPkIfaceDown:sum(packetBytes) 	0
attr interpolationmode  none
attr source  dropPkIfaceDown
attr title  "packets dropped/interface down, sum(packetBytes)"
scalar ExamTaskNetwork_no_CCTV.MainRouter.eth[1].mac 	rxPkOk:count 	24980
attr interpolationmode  none
attr source  rxPkOk
attr title  "packets received OK, count"
scalar ExamTaskNetwork_no_CCTV.MainRouter.eth[1].mac 	rxPkOk:sum(packetBytes) 	36097586
attr interpolationmode  none
attr source  rxPkOk
attr title  "packets received OK, sum(packetBytes)"
scalar ExamTaskNetwork_no_CCTV.MainRouter.eth[1].encap 	pauseSent:count 	0
attr title  "pause sent, count"
scalar ExamTaskNetwork_no_CCTV.MainRouter.eth[1].encap 	pauseSent:sum 	0
attr title  "pause sent, sum"
scalar ExamTaskNetwork_no_CCTV.MainRouter.eth[1].encap 	decapPk:count 	24980
attr interpolationmode  none
attr source  decapPk
attr title  "packets decapsulated, count"
scalar ExamTaskNetwork_no_CCTV.MainRouter.eth[1].encap 	decapPk:sum(packetBytes) 	35647640
attr interpolationmode  none
attr source  decapPk
attr title  "packets decapsulated, sum(packetBytes)"
scalar ExamTaskNetwork_no_CCTV.MainRouter.eth[1].encap 	encapPk:count 	24847
attr interpolationmode  none
attr source  encapPk
attr title  "packets encapsulated, count"
scalar ExamTaskNetwork_no_CCTV.MainRouter.eth[1].encap 	encapPk:sum(packetBytes) 	35457716
attr interpolationmode  none
attr source  encapPk
attr title  "packets encapsulated, sum(packetBytes)"
scalar ExamTaskNetwork_no_CCTV.MainRouter.ppp[0].outputHook[0] 	duration 	1000.0000118731
scalar ExamTaskNetwork_no_CCTV.MainRouter.ppp[0].outputHook[0] 	"total packets" 	1146034
scalar ExamTaskNetwork_no_CCTV.MainRouter.ppp[0].outputHook[0] 	"total bits" 	4682513256
scalar ExamTaskNetwork_no_CCTV.MainRouter.ppp[0].outputHook[0] 	"avg throughput (bit/s)" 	4682513.200404
scalar ExamTaskNetwork_no_CCTV.MainRouter.ppp[0].outputHook[0] 	"avg packets/s" 	1146.033986393
scalar ExamTaskNetwork_no_CCTV.MainRouter.ppp[0].inputHook[0] 	duration 	1000.0000118731
scalar ExamTaskNetwork_no_CCTV.MainRouter.ppp[0].inputHook[0] 	"total packets" 	766623
scalar ExamTaskNetwork_no_CCTV.MainRouter.ppp[0].inputHook[0] 	"total bits" 	5459427000
scalar ExamTaskNetwork_no_CCTV.MainRouter.ppp[0].inputHook[0] 	"avg throughput (bit/s)" 	5459426.9351796
scalar ExamTaskNetwork_no_CCTV.MainRouter.ppp[0].inputHook[0] 	"avg packets/s" 	766.6229908978
statistic ExamTaskNetwork_no_CCTV.MainRouter.ppp[0].queue 	queueingTime:histogram
field count 1119531
field mean 0.0007864344439065
field stddev 0.002313812680509
field sum 880.43773942109
field sqrsum 6.6860669262514
field min 0
field max 0.039415868575
attr interpolationmode  none
attr title  "queueing time, histogram"
bin	-INF	0
bin	-0.000357440004	0
bin	-0.0003097813368	0
bin	-0.0002621226696	0
bin	-0.0002144640024	0
bin	-0.0001668053352	0
bin	-0.000119146668	0
bin	-7.14880008e-05	0
bin	-2.38293336e-05	601769
bin	2.38293336e-05	5008
bin	7.14880008e-05	7773
bin	0.000119146668	5015
bin	0.0001668053352	5292
bin	0.0002144640024	4559
bin	0.0002621226696	3377
bin	0.0003097813368	5136
bin	0.000357440004	2982
bin	0.0004050986712	2723
bin	0.0004527573384	2794
bin	0.0005004160056	3325
bin	0.0005480746728	5980
bin	0.00059573334	8306
bin	0.0006433920072	5230
bin	0.0006910506744	2535
bin	0.0007387093416	3834
bin	0.0007863680088	2835
bin	0.000834026676	2730
bin	0.0008816853432	50759
bin	0.0009293440104	3496
bin	0.0009770026776	202886
bin	0.0010246613448	4123
bin	0.001072320012	177064
scalar ExamTaskNetwork_no_CCTV.MainRouter.ppp[0].queue 	dropPk:count 	26503
attr interpolationmode  none
attr source  dropPkByQueue
attr title  "dropped packets, count"
scalar ExamTaskNetwork_no_CCTV.MainRouter.ppp[0].queue 	dropPk:sum(packetBytes) 	19041095
attr interpolationmode  none
attr source  dropPkByQueue
attr title  "dropped packets, sum(packetBytes)"
scalar ExamTaskNetwork_no_CCTV.MainRouter.ppp[0].queue 	queueLength:max 	50
attr interpolationmode  sample-hold
attr title  "queue length, max"
scalar ExamTaskNetwork_no_CCTV.MainRouter.ppp[0].queue 	queueLength:timeavg 	0.88043772896828
attr interpolationmode  sample-hold
attr title  "queue length, timeavg"
scalar ExamTaskNetwork_no_CCTV.MainRouter.ppp[0].queue 	rcvdPk:count 	1146034
attr interpolationmode  none
attr title  "received packets, count"
scalar ExamTaskNetwork_no_CCTV.MainRouter.ppp[0].queue 	rcvdPk:sum(packetBytes) 	585314157
attr interpolationmode  none
attr title  "received packets, sum(packetBytes)"
scalar ExamTaskNetwork_no_CCTV.MainRouter.ppp[0].ppp 	rcvdPkFromHL:count 	1119531
attr interpolationmode  none
attr source  packetReceivedFromUpper
attr title  "packets received from higher layer, count"
scalar ExamTaskNetwork_no_CCTV.MainRouter.ppp[0].ppp 	rcvdPkFromHL:sum(packetBytes) 	566273062
attr interpolationmode  none
attr source  packetReceivedFromUpper
attr title  "packets received from higher layer, sum(packetBytes)"
scalar ExamTaskNetwork_no_CCTV.MainRouter.ppp[0].ppp 	passedUpPk:count 	766623
attr interpolationmode  none
attr source  packetSentToUpper
attr title  "packets passed to higher layer, count"
scalar ExamTaskNetwork_no_CCTV.MainRouter.ppp[0].ppp 	passedUpPk:sum(packetBytes) 	682428375
attr interpolationmode  none
attr source  packetSentToUpper
attr title  "packets passed to higher layer, sum(packetBytes)"
scalar ExamTaskNetwork_no_CCTV.MainRouter.ppp[0].ppp 	txPk:count 	1119531
attr interpolationmode  none
attr source  packetSentToLower
attr title  "packets transmitted, count"
scalar ExamTaskNetwork_no_CCTV.MainRouter.ppp[0].ppp 	txPk:sum(packetBytes) 	574109779
attr interpolationmode  none
attr source  packetSentToLower
attr title  "packets transmitted, sum(packetBytes)"
scalar ExamTaskNetwork_no_CCTV.MainRouter.ppp[0].ppp 	droppedPkBitError:count 	0
attr interpolationmode  none
attr source  dropPkBitError
attr title  "packets dropped/bit error, count"
scalar ExamTaskNetwork_no_CCTV.MainRouter.ppp[0].ppp 	droppedPkBitError:sum(packetBytes) 	0
attr interpolationmode  none
attr source  dropPkBitError
attr title  "packets dropped/bit error, sum(packetBytes)"
scalar ExamTaskNetwork_no_CCTV.MainRouter.ppp[0].ppp 	droppedPkIfaceDown:count 	0
attr interpolationmode  none
attr source  dropPkIfaceDown
attr title  "packets dropped/interface down, count"
scalar ExamTaskNetwork_no_CCTV.MainRouter.ppp[0].ppp 	droppedPkIfaceDown:sum(packetBytes) 	0
attr interpolationmode  none
attr source  dropPkIfaceDown
attr title  "packets dropped/interface down, sum(packetBytes)"
scalar ExamTaskNetwork_no_CCTV.MainRouter.ppp[0].ppp 	rxPkOk:count 	766623
attr interpolationmode  none
attr source  rxPkOk
attr title  "packets received OK, count"
scalar ExamTaskNetwork_no_CCTV.MainRouter.ppp[0].ppp 	rxPkOk:sum(packetBytes) 	687794736
attr interpolationmode  none
attr source  rxPkOk
attr title  "packets received OK, sum(packetBytes)"
scalar ExamTaskNetwork_no_CCTV.MainRouter.ppp[0].ppp 	txState:timeavg 	0.38273984774523
attr interpolationmode  sample-hold
attr title  "tx state, timeavg"
scalar ExamTaskNetwork_no_CCTV.Internet.networkLayer.arp 	initiatedARPResolution:count 	252
attr title  "ARP initiated resolutions, count"
scalar ExamTaskNetwork_no_CCTV.Internet.networkLayer.arp 	sentReply:count 	2
attr title  "ARP replies sent, count"
scalar ExamTaskNetwork_no_CCTV.Internet.networkLayer.arp 	sentReq:count 	252
attr title  "ARP request sent, count"
scalar ExamTaskNetwork_no_CCTV.Internet.networkLayer.arp 	failedARPResolution:count 	0
attr title  "ARP failed resolutions, count"
scalar ExamTaskNetwork_no_CCTV.Internet.networkLayer.arp 	completedARPResolution:count 	254
attr title  "ARP completed resolutions, count"
scalar ExamTaskNetwork_no_CCTV.Internet.lo0.lo 	rcvdPkFromHL:count 	0
attr interpolationmode  none
attr source  packetReceivedFromUpper
attr title  "packets received from higher layer, count"
scalar ExamTaskNetwork_no_CCTV.Internet.lo0.lo 	rcvdPkFromHL:sum(packetBytes) 	0
attr interpolationmode  none
attr source  packetReceivedFromUpper
attr title  "packets received from higher layer, sum(packetBytes)"
scalar ExamTaskNetwork_no_CCTV.Internet.lo0.lo 	passedUpPk:count 	0
attr interpolationmode  none
attr source  packetSentToUpper
attr title  "packets passed to higher layer, count"
scalar ExamTaskNetwork_no_CCTV.Internet.lo0.lo 	passedUpPk:sum(packetBytes) 	0
attr interpolationmode  none
attr source  packetSentToUpper
attr title  "packets passed to higher layer, sum(packetBytes)"
scalar ExamTaskNetwork_no_CCTV.Internet.lo0.lo 	droppedPkBitError:count 	0
attr interpolationmode  none
attr source  dropPkBitError
attr title  "packets dropped/bit error, count"
scalar ExamTaskNetwork_no_CCTV.Internet.lo0.lo 	droppedPkBitError:sum(packetBytes) 	0
attr interpolationmode  none
attr source  dropPkBitError
attr title  "packets dropped/bit error, sum(packetBytes)"
scalar ExamTaskNetwork_no_CCTV.Internet.eth[0].mac 	"simulated time" 	1000.0000118731
scalar ExamTaskNetwork_no_CCTV.Internet.eth[0].mac 	full-duplex 	1
scalar ExamTaskNetwork_no_CCTV.Internet.eth[0].mac 	"frames/sec sent" 	1121.355986686
scalar ExamTaskNetwork_no_CCTV.Internet.eth[0].mac 	"frames/sec rcvd" 	1162.5179861973
scalar ExamTaskNetwork_no_CCTV.Internet.eth[0].mac 	"bits/sec sent" 	4634539.4169736
scalar ExamTaskNetwork_no_CCTV.Internet.eth[0].mac 	"bits/sec rcvd" 	5492462.7907874
scalar ExamTaskNetwork_no_CCTV.Internet.eth[0].mac 	"rx channel idle (%)" 	94.433136058096
scalar ExamTaskNetwork_no_CCTV.Internet.eth[0].mac 	"rx channel utilization (%)" 	5.5668639419037
scalar ExamTaskNetwork_no_CCTV.Internet.eth[0].mac 	rxPkFromHL:count 	1121356
attr interpolationmode  none
attr source  rxPkFromHL
attr title  "packet bytes from higher layer, count"
scalar ExamTaskNetwork_no_CCTV.Internet.eth[0].mac 	rxPkFromHL:sum(packetBytes) 	579317434
attr interpolationmode  none
attr source  rxPkFromHL
attr title  "packet bytes from higher layer, sum(packetBytes)"
scalar ExamTaskNetwork_no_CCTV.Internet.eth[0].mac 	rxPausePkUnits:count 	0
attr interpolationmode  none
attr title  "pause units received, count"
scalar ExamTaskNetwork_no_CCTV.Internet.eth[0].mac 	rxPausePkUnits:sum 	0
attr interpolationmode  none
attr title  "pause units received, sum"
scalar ExamTaskNetwork_no_CCTV.Internet.eth[0].mac 	txPausePkUnits:count 	0
attr interpolationmode  none
attr title  "pause units sent, count"
scalar ExamTaskNetwork_no_CCTV.Internet.eth[0].mac 	txPausePkUnits:sum 	0
attr interpolationmode  none
attr title  "pause units sent, sum"
scalar ExamTaskNetwork_no_CCTV.Internet.eth[0].mac 	txPk:count 	1121356
attr interpolationmode  none
attr source  txPk
attr title  "packets transmitted, count"
scalar ExamTaskNetwork_no_CCTV.Internet.eth[0].mac 	txPk:sum(packetBytes) 	579317434
attr interpolationmode  none
attr source  txPk
attr title  "packets transmitted, sum(packetBytes)"
scalar ExamTaskNetwork_no_CCTV.Internet.eth[0].mac 	droppedPkNotForUs:count 	0
attr interpolationmode  none
attr source  dropPkNotForUs
attr title  "packets dropped/not for us, count"
scalar ExamTaskNetwork_no_CCTV.Internet.eth[0].mac 	droppedPkNotForUs:sum(packetBytes) 	0
attr interpolationmode  none
attr source  dropPkNotForUs
attr title  "packets dropped/not for us, sum(packetBytes)"
scalar ExamTaskNetwork_no_CCTV.Internet.eth[0].mac 	passedUpPk:count 	1162518
attr interpolationmode  none
attr source  packetSentToUpper
attr title  "packets passed to higher layer, count"
scalar ExamTaskNetwork_no_CCTV.Internet.eth[0].mac 	passedUpPk:sum(packetBytes) 	686557857
attr interpolationmode  none
attr source  packetSentToUpper
attr title  "packets passed to higher layer, sum(packetBytes)"
scalar ExamTaskNetwork_no_CCTV.Internet.eth[0].mac 	droppedPkBitError:count 	0
attr interpolationmode  none
attr source  dropPkBitError
attr title  "packets dropped/bit error, count"
scalar ExamTaskNetwork_no_CCTV.Internet.eth[0].mac 	droppedPkBitError:sum(packetBytes) 	0
attr interpolationmode  none
attr source  dropPkBitError
attr title  "packets dropped/bit error, sum(packetBytes)"
scalar ExamTaskNetwork_no_CCTV.Internet.eth[0].mac 	droppedPkIfaceDown:count 	0
attr interpolationmode  none
attr source  dropPkIfaceDown
attr title  "packets dropped/interface down, count"
scalar ExamTaskNetwork_no_CCTV.Internet.eth[0].mac 	droppedPkIfaceDown:sum(packetBytes) 	0
attr interpolationmode  none
attr source  dropPkIfaceDown
attr title  "packets dropped/interface down, sum(packetBytes)"
scalar ExamTaskNetwork_no_CCTV.Internet.eth[0].mac 	rxPkOk:count 	1162518
attr interpolationmode  none
attr source  rxPkOk
attr title  "packets received OK, count"
scalar ExamTaskNetwork_no_CCTV.Internet.eth[0].mac 	rxPkOk:sum(packetBytes) 	686557857
attr interpolationmode  none
attr source  rxPkOk
attr title  "packets received OK, sum(packetBytes)"
scalar ExamTaskNetwork_no_CCTV.Internet.eth[0].encap 	pauseSent:count 	0
attr title  "pause sent, count"
scalar ExamTaskNetwork_no_CCTV.Internet.eth[0].encap 	pauseSent:sum 	0
attr title  "pause sent, sum"
scalar ExamTaskNetwork_no_CCTV.Internet.eth[0].encap 	decapPk:count 	1162518
attr interpolationmode  none
attr source  decapPk
attr title  "packets decapsulated, count"
scalar ExamTaskNetwork_no_CCTV.Internet.eth[0].encap 	decapPk:sum(packetBytes) 	655366703
attr interpolationmode  none
attr source  decapPk
attr title  "packets decapsulated, sum(packetBytes)"
scalar ExamTaskNetwork_no_CCTV.Internet.eth[0].encap 	encapPk:count 	1121356
attr interpolationmode  none
attr source  encapPk
attr title  "packets encapsulated, count"
scalar ExamTaskNetwork_no_CCTV.Internet.eth[0].encap 	encapPk:sum(packetBytes) 	549686913
attr interpolationmode  none
attr source  encapPk
attr title  "packets encapsulated, sum(packetBytes)"
scalar ExamTaskNetwork_no_CCTV.Internet.tcpApp[0] 	sentPk:count 	646
attr interpolationmode  none
attr source  sentPk
attr title  "packets sent, count"
scalar ExamTaskNetwork_no_CCTV.Internet.tcpApp[0] 	sentPk:sum(packetBytes) 	449311212
attr interpolationmode  none
attr source  sentPk
attr title  "packets sent, sum(packetBytes)"
scalar ExamTaskNetwork_no_CCTV.Internet.tcpApp[0] 	rcvdPk:count 	646
attr interpolationmode  none
attr source  rcvdPk
attr title  "packets received, count"
scalar ExamTaskNetwork_no_CCTV.Internet.tcpApp[0] 	rcvdPk:sum(packetBytes) 	5292032
attr interpolationmode  none
attr source  rcvdPk
attr title  "packets received, sum(packetBytes)"
statistic ExamTaskNetwork_no_CCTV.Internet.tcpApp[0] 	endToEndDelay:histogram
field count 646
field mean 0.42030272578825
field stddev 0.75707971405951
field sum 271.51556085921
field sqrsum 483.81318259213
field min 0.207792220367
field max 9.309928356982
attr interpolationmode  none
attr source  messageAge(rcvdPk)
attr title  "end-to-end delay, histogram"
attr unit  s
bin	-INF	0
bin	-1.330946451674	0
bin	-1.1257278436205	0
bin	-0.92050923556707	0
bin	-0.7152906275136	0
bin	-0.51007201946013	0
bin	-0.30485341140667	0
bin	-0.0996348033532	0
bin	0.10558380470027	558
bin	0.31080241275373	61
bin	0.5160210208072	0
bin	0.72123962886067	0
bin	0.92645823691413	0
bin	1.1316768449676	0
bin	1.3368954530211	0
bin	1.5421140610745	0
bin	1.747332669128	0
bin	1.9525512771815	0
bin	2.1577698852349	0
bin	2.3629884932884	0
bin	2.5682071013419	0
bin	2.7734257093953	0
bin	2.9786443174488	5
bin	3.1838629255023	19
bin	3.3890815335557	1
bin	3.5943001416092	0
bin	3.7995187496627	0
bin	4.0047373577161	0
bin	4.2099559657696	0
bin	4.4151745738231	0
bin	4.6203931818765	0
bin	4.82561178993	2
scalar ExamTaskNetwork_no_CCTV.Internet.tcpApp[1] 	rcvdPk:count 	0
attr interpolationmode  none
attr source  rcvdPk
attr title  "packets received, count"
scalar ExamTaskNetwork_no_CCTV.Internet.tcpApp[1] 	rcvdPk:sum(packetBytes) 	0
attr interpolationmode  none
attr source  rcvdPk
attr title  "packets received, sum(packetBytes)"
statistic ExamTaskNetwork_no_CCTV.Internet.tcpApp[1] 	endToEndDelay:histogram
field count 0
field mean -nan
field stddev -nan
field sum 0
field sqrsum 0
field min -nan
field max -nan
attr interpolationmode  none
attr source  messageAge(rcvdPk)
attr title  "end-to-end delay, histogram"
attr unit  s
bin	-INF	0
bin	-0.5	0
bin	-0.46666666666667	0
bin	-0.43333333333333	0
bin	-0.4	0
bin	-0.36666666666667	0
bin	-0.33333333333333	0
bin	-0.3	0
bin	-0.26666666666667	0
bin	-0.23333333333333	0
bin	-0.2	0
bin	-0.16666666666667	0
bin	-0.13333333333333	0
bin	-0.1	0
bin	-0.066666666666667	0
bin	-0.033333333333333	0
bin	0	0
bin	0.033333333333333	0
bin	0.066666666666667	0
bin	0.1	0
bin	0.13333333333333	0
bin	0.16666666666667	0
bin	0.2	0
bin	0.23333333333333	0
bin	0.26666666666667	0
bin	0.3	0
bin	0.33333333333333	0
bin	0.36666666666667	0
bin	0.4	0
bin	0.43333333333333	0
bin	0.46666666666667	0
bin	0.5	0
